
 *******************************************************************************

         NASA-GLENN CHEMICAL EQUILIBRIUM PROGRAM CEA2, MAY 21, 2004
                   BY  BONNIE MCBRIDE AND SANFORD GORDON
      REFS: NASA RP-1311, PART I, 1994 AND NASA RP-1311, PART II, 1996

 *******************************************************************************



 prob
 phi,eq.ratio=2.1,2.2,2.3,2.4,2.5,2.6,2.7,2.8,2.9,3,3.1,3.2,3.3,3.4,3.5,3.6 det t
 ,k=300 p,bar=1
 react
   fuel=C2H2,acetylene moles=1 t,k=300
   oxid=O2 moles=2.5 t,k=300
   oxid=N2 moles=9.4048 t,k=300
 output
      trace=1e-16 siunits short
 end


                     DETONATION PROPERTIES OF AN IDEAL REACTING GAS
 CASE =                

             REACTANT                       MOLES         ENERGY      TEMP
                                                         KJ/KG-MOL      K
 FUEL        C2H2,acetylene               1.0000000    228281.530    300.000
 OXIDANT     O2                           2.5000000        54.358    300.000
 OXIDANT     N2                           9.4048000        53.881    300.000

 O/F=    6.28142  %FUEL= 13.733580  R,EQ.RATIO= 2.100000  PHI,EQ.RATIO= 2.100000

 UNBURNED GAS

 P1, BAR           1.0000
 T1, K             300.00
 H1, KJ/KG        1205.70
 M1, (1/n)         28.429
 GAMMA1            1.3598
 SON VEL1,M/SEC     345.4

 BURNED GAS

 P, BAR            21.697
 T, K             3221.21
 RHO, KG/CU M    2.0295 0
 H, KJ/KG         2623.61
 U, KJ/KG         1554.51
 G, KJ/KG        -29405.2
 S, KJ/(KG)(K)     9.9431

 M, (1/n)          25.052
 (dLV/dLP)t      -1.00592
 (dLV/dLT)p        1.1070
 Cp, KJ/(KG)(K)    2.1693
 GAMMAs            1.2219
 SON VEL,M/SEC     1142.9

 DETONATION PARAMETERS

 P/P1              21.697
 T/T1              10.737
 M/M1              0.8812
 RHO/RHO1          1.7807
 DET MACH NUMBER   5.8921
 DET VEL,M/SEC     2035.2

 MOLE FRACTIONS

 *C              1.4770-9
 *CH             6.504-10
 CH2             1.4605-9
 CH3             3.0588-9
 CH2OH           7.409-11
 CH3O            2.009-11
 CH4             9.879-10
 CH3OH           5.708-12
 *CN             1.6653-7
 CNN             3.729-13
 *CO             2.5190-1
 *CO2            1.2361-2
 COOH            4.3736-7
 *C2             1.069-13
 C2H             4.007-12
 C2H2,acetylene  7.909-11
 C2H2,vinylidene 4.003-13
 CH2CO,ketene    9.937-11
 O(CH)2O         1.185-13
 HO(CO)2OH       3.682-16
 C2H3,vinyl      3.239-14
 CH3CN           2.707-14
 CH3CO,acetyl    6.698-14
 C2H4            1.543-14
 CH3CHO,ethanal  1.716-15
 CH3COOH         1.170-16
 CCN             9.354-16
 CNC             6.640-14
 OCCN            7.077-11
 C2N2            1.044-11
 C2O             4.740-10
 C3O2            1.331-12
 *H              1.8923-2
 HCN             6.2299-6
 HCO             6.3769-6
 HCCN            1.257-15
 HCCO            5.046-11
 HNC             1.2831-6
 HNCO            6.7518-7
 HNO             5.8027-7
 HNO2            5.7392-9
 HNO3            4.123-14
 HO2             1.6144-7
 *H2             8.7526-2
 HCHO,formaldehy 1.9880-7
 HCOOH           6.9655-8
 H2O             3.3610-2
 H2O2            2.7543-8
 *N              8.6770-6
 NCO             1.2370-7
 *NH             4.1346-6
 NH2             2.4900-6
 NH3             2.5740-6
 NH2OH           1.672-10
 *NO             8.5547-4
 NO2             3.2418-8
 NO3             1.016-14
 *N2             5.9133-1
 NCN             2.316-11
 N2H2            5.128-10
 N2H4            4.999-14
 N2O             1.9880-7
 N2O3            7.008-16
 N3              1.055-10
 N3H             4.843-11
 *O              3.6364-4
 *OH             3.0452-3
 *O2             5.4494-5
 O3              4.065-12

  * THERMODYNAMIC PROPERTIES FITTED TO 20000.K


                     DETONATION PROPERTIES OF AN IDEAL REACTING GAS
 CASE =                

             REACTANT                       MOLES         ENERGY      TEMP
                                                         KJ/KG-MOL      K
 FUEL        C2H2,acetylene               1.0000000    228281.530    300.000
 OXIDANT     O2                           2.5000000        54.358    300.000
 OXIDANT     N2                           9.4048000        53.881    300.000

 O/F=    5.99590  %FUEL= 14.294080  R,EQ.RATIO= 2.200000  PHI,EQ.RATIO= 2.200000

 UNBURNED GAS

 P1, BAR           1.0000
 T1, K             300.00
 H1, KJ/KG        1254.84
 M1, (1/n)         28.412
 GAMMA1            1.3584
 SON VEL1,M/SEC     345.3

 BURNED GAS

 P, BAR            21.732
 T, K             3197.99
 RHO, KG/CU M    2.0240 0
 H, KJ/KG         2677.04
 U, KJ/KG         1603.32
 G, KJ/KG        -29290.0
 S, KJ/(KG)(K)     9.9960

 M, (1/n)          24.764
 (dLV/dLP)t      -1.00544
 (dLV/dLT)p        1.0974
 Cp, KJ/(KG)(K)    2.1164
 GAMMAs            1.2279
 SON VEL,M/SEC     1148.2

 DETONATION PARAMETERS

 P/P1              21.732
 T/T1              10.660
 M/M1              0.8716
 RHO/RHO1          1.7769
 DET MACH NUMBER   5.9081
 DET VEL,M/SEC     2040.3

 MOLE FRACTIONS

 *C              1.9679-9
 *CH             9.576-10
 CH2             2.4355-9
 CH3             5.8240-9
 CH2OH           9.217-11
 CH3O            2.465-11
 CH4             2.1240-9
 CH3OH           7.969-12
 *CN             2.3766-7
 CNN             4.988-13
 *CO             2.6320-1
 *CO2            8.6816-3
 COOH            3.1282-7
 *C2             2.244-13
 C2H             9.636-12
 C2H2,acetylene  2.227-10
 C2H2,vinylidene 1.076-12
 CH2CO,ketene    1.886-10
 O(CH)2O         1.464-13
 HO(CO)2OH       2.034-16
 C2H3,vinyl      9.592-14
 CH3CN           8.441-14
 CH3CO,acetyl    1.342-13
 C2H4            5.215-14
 CH3CHO,ethanal  3.839-15
 CH3COOH         1.749-16
 CCN             1.958-15
 CNC             1.435-13
 OCCN            1.087-10
 C2N2            2.469-11
 C2O             7.176-10
 *C3             3.119-16
 C3O2            2.259-12
 *H              1.8970-2
 HCN             1.0311-5
 HCO             6.8318-6
 HCCN            2.955-15
 HCCO            8.430-11
 HNC             2.0888-6
 HNCO            7.4731-7
 HNO             3.7188-7
 HNO2            2.4143-9
 HNO3            1.097-14
 HO2             6.7000-8
 *H2             9.9815-2
 HCHO,formaldehy 2.3701-7
 HCOOH           5.5507-8
 H2O             2.5627-2
 H2O2            1.2719-8
 *N              7.5387-6
 NCO             1.1955-7
 *NH             3.9712-6
 NH2             2.6774-6
 NH3             3.1548-6
 NH2OH           1.275-10
 *NO             5.1622-4
 NO2             1.2389-8
 NO3             2.393-15
 *N2             5.8091-1
 NCN             3.212-11
 N2H2            5.403-10
 N2H4            6.230-14
 N2O             1.1881-7
 N2O3            1.628-16
 N3              9.103-11
 N3H             4.641-11
 *O              2.1147-4
 *OH             2.0109-3
 *O2             2.1217-5
 O3              9.420-13

  * THERMODYNAMIC PROPERTIES FITTED TO 20000.K


                     DETONATION PROPERTIES OF AN IDEAL REACTING GAS
 CASE =                

             REACTANT                       MOLES         ENERGY      TEMP
                                                         KJ/KG-MOL      K
 FUEL        C2H2,acetylene               1.0000000    228281.530    300.000
 OXIDANT     O2                           2.5000000        54.358    300.000
 OXIDANT     N2                           9.4048000        53.881    300.000

 O/F=    5.73521  %FUEL= 14.847343  R,EQ.RATIO= 2.300000  PHI,EQ.RATIO= 2.300000

 UNBURNED GAS

 P1, BAR           1.0000
 T1, K             300.00
 H1, KJ/KG        1303.33
 M1, (1/n)         28.395
 GAMMA1            1.3570
 SON VEL1,M/SEC     345.3

 BURNED GAS

 P, BAR            21.756
 T, K             3173.36
 RHO, KG/CU M    2.0189 0
 H, KJ/KG         2729.02
 U, KJ/KG         1651.43
 G, KJ/KG        -29149.5
 S, KJ/(KG)(K)    10.0457

 M, (1/n)          24.485
 (dLV/dLP)t      -1.00505
 (dLV/dLT)p        1.0896
 Cp, KJ/(KG)(K)    2.0757
 GAMMAs            1.2333
 SON VEL,M/SEC     1152.8

 DETONATION PARAMETERS

 P/P1              21.756
 T/T1              10.578
 M/M1              0.8623
 RHO/RHO1          1.7735
 DET MACH NUMBER   5.9218
 DET VEL,M/SEC     2044.6

 MOLE FRACTIONS

 *C              2.8760-9
 *CH             1.5397-9
 CH2             4.4249-9
 CH3             1.2060-8
 CH2OH           1.116-10
 CH3O            2.941-11
 CH4             4.9542-9
 CH3OH           1.080-11
 *CN             3.7420-7
 CNN             7.327-13
 *CO             2.7377-1
 *CO2            5.4441-3
 COOH            1.9765-7
 *C2             5.737-13
 C2H             2.818-11
 C2H2,acetylene  7.628-10
 C2H2,vinylidene 3.506-12
 CH2CO,ketene    3.907-10
 O(CH)2O         1.766-13
 C2H3,vinyl      3.427-13
 CH3CN           3.190-13
 CH3CO,acetyl    2.910-13
 C2H4            2.122-13
 CH3CHO,ethanal  9.266-15
 CH3COOH         2.528-16
 C2H5            1.693-16
 CCN             4.993-15
 CNC             3.787-13
 OCCN            1.836-10
 C2N2            7.183-11
 C2O             1.1933-9
 *C3             1.443-15
 C3H3,2-propynl  4.320-16
 C3O2            4.212-12
 *H              1.8804-2
 HCN             1.8814-5
 HCO             7.2128-6
 HCCN            8.439-15
 HCCO            1.540-10
 HNC             3.7445-6
 HNCO            8.1761-7
 HNO             2.1066-7
 HNO2            8.036-10
 HNO3            2.061-15
 HO2             2.1966-8
 *H2             1.1232-1
 HCHO,formaldehy 2.7742-7
 HCOOH           3.8932-8
 H2O             1.7285-2
 H2O2            4.6221-9
 *N              6.4861-6
 NCO             1.1438-7
 *NH             3.7610-6
 NH2             2.8294-6
 NH3             3.7929-6
 NH2OH           8.496-11
 *NO             2.7734-4
 NO2             3.7635-9
 NO3             3.992-16
 *N2             5.7076-1
 NCN             4.906-11
 N2H2            5.590-10
 N2H4            7.539-14
 N2O             6.3204-8
 N3              7.780-11
 N3H             4.390-11
 *O              1.0913-4
 *OH             1.1757-3
 *O2             6.5721-6
 O3              1.543-13

  * THERMODYNAMIC PROPERTIES FITTED TO 20000.K


                     DETONATION PROPERTIES OF AN IDEAL REACTING GAS
 CASE =                

             REACTANT                       MOLES         ENERGY      TEMP
                                                         KJ/KG-MOL      K
 FUEL        C2H2,acetylene               1.0000000    228281.530    300.000
 OXIDANT     O2                           2.5000000        54.358    300.000
 OXIDANT     N2                           9.4048000        53.881    300.000

 O/F=    5.49624  %FUEL= 15.393509  R,EQ.RATIO= 2.400000  PHI,EQ.RATIO= 2.400000

 UNBURNED GAS

 P1, BAR           1.0000
 T1, K             300.00
 H1, KJ/KG        1351.21
 M1, (1/n)         28.378
 GAMMA1            1.3557
 SON VEL1,M/SEC     345.2

 BURNED GAS

 P, BAR            21.773
 T, K             3147.80
 RHO, KG/CU M    2.0144 0
 H, KJ/KG         2779.73
 U, KJ/KG         1698.87
 G, KJ/KG        -28986.6
 S, KJ/(KG)(K)    10.0916

 M, (1/n)          24.215
 (dLV/dLP)t      -1.00474
 (dLV/dLT)p        1.0831
 Cp, KJ/(KG)(K)    2.0440
 GAMMAs            1.2381
 SON VEL,M/SEC     1156.8

 DETONATION PARAMETERS

 P/P1              21.773
 T/T1              10.493
 M/M1              0.8533
 RHO/RHO1          1.7706
 DET MACH NUMBER   5.9335
 DET VEL,M/SEC     2048.2

 MOLE FRACTIONS

 *C              5.4732-9
 *CH             3.2103-9
 CH2             1.0396-8
 CH3             3.2217-8
 CH2OH           1.320-10
 CH3O            3.425-11
 CH4             1.4866-8
 CH3OH           1.424-11
 *CN             7.7057-7
 CNN             1.403-12
 *CO             2.8368-1
 *CO2            2.5788-3
 COOH            9.3498-8
 *C2             2.510-12
 C2H             1.408-10
 C2H2,acetylene  4.4587-9
 C2H2,vinylidene 1.944-11
 CH2CO,ketene    1.0471-9
 O(CH)2O         2.086-13
 C2H3,vinyl      2.074-12
 CH3CN           2.050-12
 CH3CO,acetyl    8.113-13
 C2H4            1.460-12
 CH3CHO,ethanal  2.864-14
 CH3COOH         3.547-16
 C2H5            1.204-15
 CCN             2.179-14
 CNC             1.714-12
 OCCN            4.047-10
 C2N2            3.605-10
 C2O             2.5856-9
 *C3             1.504-14
 C3H3,2-propynl  6.130-15
 C3H4,propyne    1.640-16
 C3O2            1.023-11
 *H              1.8466-2
 HCN             4.4839-5
 HCO             7.5216-6
 HCCN            4.113-14
 HCCO            3.651-10
 HNC             8.7584-6
 HNCO            8.8558-7
 HNO             8.9415-8
 HNO2            1.517-10
 HNO3            1.660-16
 HO2             4.0811-9
 *H2             1.2489-1
 HCHO,formaldehy 3.1952-7
 HCOOH           2.0367-8
 H2O             8.7325-3
 H2O2            9.483-10
 *N              5.5399-6
 NCO             1.0857-7
 *NH             3.5213-6
 NH2             2.9456-6
 NH3             4.4817-6
 NH2OH           4.201-11
 *NO             1.1237-4
 NO2             6.515-10
 *N2             5.6090-1
 NCN             9.788-11
 N2H2            5.694-10
 N2H4            8.888-14
 N2O             2.5355-8
 N3              6.603-11
 N3H             4.107-11
 *O              4.2367-5
 *OH             5.1574-4
 *O2             1.1609-6
 O3              1.086-14

  * THERMODYNAMIC PROPERTIES FITTED TO 20000.K


                     DETONATION PROPERTIES OF AN IDEAL REACTING GAS
 CASE =                

             REACTANT                       MOLES         ENERGY      TEMP
                                                         KJ/KG-MOL      K
 FUEL        C2H2,acetylene               1.0000000    228281.530    300.000
 OXIDANT     O2                           2.5000000        54.358    300.000
 OXIDANT     N2                           9.4048000        53.881    300.000

 O/F=    5.27639  %FUEL= 15.932713  R,EQ.RATIO= 2.500000  PHI,EQ.RATIO= 2.500000

 UNBURNED GAS

 P1, BAR           1.0000
 T1, K             300.00
 H1, KJ/KG        1398.47
 M1, (1/n)         28.362
 GAMMA1            1.3544
 SON VEL1,M/SEC     345.1

 BURNED GAS

 P, BAR            21.766
 T, K             3120.95
 RHO, KG/CU M    2.0108 0
 H, KJ/KG         2828.02
 U, KJ/KG         1745.53
 G, KJ/KG        -28789.6
 S, KJ/(KG)(K)    10.1308

 M, (1/n)          23.972
 (dLV/dLP)t      -1.00482
 (dLV/dLT)p        1.0775
 Cp, KJ/(KG)(K)    2.0195
 GAMMAs            1.2416
 SON VEL,M/SEC     1159.3

 DETONATION PARAMETERS

 P/P1              21.766
 T/T1              10.403
 M/M1              0.8452
 RHO/RHO1          1.7684
 DET MACH NUMBER   5.9402
 DET VEL,M/SEC     2050.1

 MOLE FRACTIONS

 *C              6.9219-8
 *CH             4.4213-8
 CH2             1.6065-7
 CH3             5.6417-7
 CH2OH           1.509-10
 CH3O            3.853-11
 CH4             2.9118-7
 CH3OH           1.807-11
 *CN             1.0605-5
 CNN             1.787-11
 *CO             2.9232-1
 *CO2            1.7965-4
 COOH            6.4240-9
 *C2             4.907-10
 C2H             3.1326-8
 C2H2,acetylene  1.1592-6
 C2H2,vinylidene 4.7773-9
 CH2CO,ketene    1.8463-8
 O(CH)2O         2.390-13
 C2H3,vinyl      5.529-10
 CH3CN           5.826-10
 CH3CO,acetyl    1.473-11
 C2H4            4.408-10
 C2H4O,ethylen-o 5.625-16
 CH3CHO,ethanal  5.740-13
 CH3COOH         4.768-16
 C2H5            3.721-13
 C2H6            3.442-14
 CCN             4.252-12
 CNC             3.476-10
 OCCN            5.9347-9
 C2N2            8.1648-8
 C2O             3.7227-8
 *C3             4.722-11
 C3H3,1-propynl  5.116-14
 C3H3,2-propynl  2.580-11
 C3H4,allene     3.600-13
 C3H4,propyne    7.573-13
 C3H4,cyclo-     9.850-15
 C3H5,allyl      3.448-15
 C3H6,propylene  3.563-16
 CNCOCN          2.265-14
 C3O2            1.650-10
 *C4             2.168-15
 C4H2,butadiyne  4.082-12
 C4N2            2.312-13
 *C5             1.185-16
 *H              1.7910-2
 HCN             7.1254-4
 HCO             7.7084-6
 HCCN            8.915-12
 HCCO            5.7141-9
 HNC             1.3642-4
 HNCO            9.4536-7
 HNO             5.5230-9
 HNO2            6.154-13
 HO2             1.626-11
 *H2             1.3663-1
 HCHO,formaldehy 3.5968-7
 HCOOH           1.5394-9
 H2O             6.4156-4
 H2O2            4.150-12
 *N              4.6870-6
 NCO             1.0191-7
 *NH             3.2460-6
 NH2             3.0043-6
 NH3             5.1690-6
 NH2OH           2.981-12
 *NO             6.6859-6
 NO2             2.438-12
 *N2             5.5139-1
 NCN             1.3025-9
 N2H2            5.674-10
 N2H4            1.011-13
 N2O             1.4929-9
 N3              5.551-11
 N3H             3.785-11
 *O              2.4076-6
 *OH             3.2986-5
 *O2             4.4376-9

  * THERMODYNAMIC PROPERTIES FITTED TO 20000.K


                     DETONATION PROPERTIES OF AN IDEAL REACTING GAS
 CASE =                

             REACTANT                       MOLES         ENERGY      TEMP
                                                         KJ/KG-MOL      K
 FUEL        C2H2,acetylene               1.0000000    228281.530    300.000
 OXIDANT     O2                           2.5000000        54.358    300.000
 OXIDANT     N2                           9.4048000        53.881    300.000

 O/F=    5.07346  %FUEL= 16.465089  R,EQ.RATIO= 2.600000  PHI,EQ.RATIO= 2.600000

 UNBURNED GAS

 P1, BAR           1.0000
 T1, K             300.00
 H1, KJ/KG        1445.14
 M1, (1/n)         28.346
 GAMMA1            1.3531
 SON VEL1,M/SEC     345.1

 BURNED GAS

 P, BAR            21.463
 T, K             3082.07
 RHO, KG/CU M    2.0087 0
 H, KJ/KG         2854.82
 U, KJ/KG         1786.33
 G, KJ/KG        -28437.2
 S, KJ/(KG)(K)    10.1529

 M, (1/n)          23.983
 (dLV/dLP)t      -1.00407
 (dLV/dLT)p        1.0717
 Cp, KJ/(KG)(K)    2.0014
 GAMMAs            1.2421
 SON VEL,M/SEC     1152.0

 DETONATION PARAMETERS

 P/P1              21.463
 T/T1              10.274
 M/M1              0.8461
 RHO/RHO1          1.7676
 DET MACH NUMBER   5.9012
 DET VEL,M/SEC     2036.3

 MOLE FRACTIONS

 *C              6.9896-7
 *CH             4.7250-7
 CH2             1.8992-6
 CH3             7.4866-6
 CH2OH           1.426-10
 CH3O            3.555-11
 CH4             4.2559-6
 CH3OH           1.859-11
 *CN             1.2111-4
 CNN             1.816-10
 *CO             2.9157-1
 *CO2            1.3431-5
 COOH            4.391-10
 *C2             6.6405-8
 C2H             4.7899-6
 C2H2,acetylene  2.0817-4
 C2H2,vinylidene 7.8921-7
 CH2CO,ketene    2.4970-7
 O(CH)2O         2.287-13
 C2H3,vinyl      9.6141-8
 CH3CN           1.1117-7
 CH3CO,acetyl    1.943-10
 C2H4            8.5961-8
 C2H4O,ethylen-o 7.547-15
 CH3CHO,ethanal  8.164-12
 CH3COOH         5.026-16
 C2H5            7.010-11
 C2H6            7.119-12
 C2H5OH          1.527-16
 CCN             5.726-10
 CNC             4.9559-8
 OCCN            7.0079-8
 C2N2            1.3686-5
 C2O             4.2862-7
 *C3             9.0636-8
 C3H3,1-propynl  1.167-10
 C3H3,2-propynl  6.2027-8
 C3H4,allene     9.228-10
 C3H4,propyne    1.9486-9
 C3H4,cyclo-     2.422-11
 C3H5,allyl      8.895-12
 C3H6,propylene  9.866-13
 C3H6,cyclo-     7.857-15
 C3H7,n-propyl   3.112-16
 C3H7,i-propyl   1.927-16
 CNCOCN          3.619-12
 C3O2            2.1138-9
 *C4             5.273-11
 C4H2,butadiyne  1.3060-7
 C4H4,1,3-cyclo- 6.469-14
 C4H6,butadiene  5.133-14
 C4H6,1butyne    8.988-15
 C4H6,2butyne    4.266-15
 C4H6,cyclo-     1.899-16
 C4N2            6.9169-9
 *C5             4.032-11
 C5H6,1,3cyclo-  1.799-16
 C6H2            8.708-11
 *H              1.6191-2
 HCN             9.3916-3
 HCO             7.1156-6
 HCCN            1.3091-9
 HCCO            6.9454-8
 HNC             1.7455-3
 HNCO            9.2524-7
 HNO             3.420-10
 HNO2            2.736-15
 HO2             7.057-14
 *H2             1.3770-1
 HCHO,formaldehy 3.5594-7
 HCOOH           1.130-10
 H2O             4.7992-5
 H2O2            1.929-14
 *N              3.7041-6
 NCO             8.8376-8
 *NH             2.7170-6
 NH2             2.7246-6
 NH3             5.2461-6
 NH2OH           1.973-13
 *NO             4.1980-7
 NO2             1.031-14
 *N2             5.4295-1
 NCN             1.4127-8
 N2H2            4.965-10
 N2H4            9.351-14
 N2O             9.214-11
 N3              4.330-11
 N3H             3.155-11
 *O              1.4152-7
 *OH             2.1545-6
 *O2             1.941-11

  * THERMODYNAMIC PROPERTIES FITTED TO 20000.K


                     DETONATION PROPERTIES OF AN IDEAL REACTING GAS
 CASE =                

             REACTANT                       MOLES         ENERGY      TEMP
                                                         KJ/KG-MOL      K
 FUEL        C2H2,acetylene               1.0000000    228281.530    300.000
 OXIDANT     O2                           2.5000000        54.358    300.000
 OXIDANT     N2                           9.4048000        53.881    300.000

 O/F=    4.88555  %FUEL= 16.990763  R,EQ.RATIO= 2.700000  PHI,EQ.RATIO= 2.700000

 UNBURNED GAS

 P1, BAR           1.0000
 T1, K             300.00
 H1, KJ/KG        1491.22
 M1, (1/n)         28.330
 GAMMA1            1.3518
 SON VEL1,M/SEC     345.0

 BURNED GAS

 P, BAR            21.155
 T, K             3043.67
 RHO, KG/CU M    2.0073 0
 H, KJ/KG         2880.55
 U, KJ/KG         1826.63
 G, KJ/KG        -28072.3
 S, KJ/(KG)(K)    10.1696

 M, (1/n)          24.012
 (dLV/dLP)t      -1.00368
 (dLV/dLT)p        1.0662
 Cp, KJ/(KG)(K)    1.9854
 GAMMAs            1.2416
 SON VEL,M/SEC     1143.9

 DETONATION PARAMETERS

 P/P1              21.155
 T/T1              10.146
 M/M1              0.8476
 RHO/RHO1          1.7673
 DET MACH NUMBER   5.8600
 DET VEL,M/SEC     2021.7

 MOLE FRACTIONS

 *C              1.0276-6
 *CH             7.3322-7
 CH2             3.2531-6
 CH3             1.4367-5
 CH2OH           1.330-10
 CH3O            3.235-11
 CH4             8.9793-6
 CH3OH           1.883-11
 *CN             2.0177-4
 CNN             2.690-10
 *CO             2.9012-1
 *CO2            6.8412-6
 COOH            2.035-10
 *C2             1.9115-7
 C2H             1.5550-5
 C2H2,acetylene  7.9271-4
 C2H2,vinylidene 2.7611-6
 CH2CO,ketene    4.8898-7
 O(CH)2O         2.161-13
 C2H3,vinyl      3.5308-7
 CH3CN           4.4878-7
 CH3CO,acetyl    3.695-10
 C2H4            3.5343-7
 C2H4O,ethylen-o 1.456-14
 CH3CHO,ethanal  1.671-11
 CH3COOH         5.206-16
 C2H5            2.773-10
 C2H6            3.086-11
 C2H5OH          3.185-16
 CCN             1.6406-9
 CNC             1.5046-7
 OCCN            1.2046-7
 C2N2            4.8970-5
 C2O             7.1794-7
 *C3             5.4085-7
 C3H3,1-propynl  8.212-10
 C3H3,2-propynl  4.6038-7
 C3H4,allene     7.2851-9
 C3H4,propyne    1.5440-8
 C3H4,cyclo-     1.834-10
 C3H5,allyl      7.043-11
 C3H6,propylene  8.363-12
 C3H6,cyclo-     6.530-14
 C3H6O,propanal  1.431-16
 C3H7,n-propyl   2.519-15
 C3H7,i-propyl   1.570-15
 C3H8            2.697-16
 CNCOCN          1.231-11
 C3O2            3.9356-9
 *C4             5.824-10
 C4H2,butadiyne  1.8909-6
 C4H4,1,3-cyclo- 9.561-13
 C4H6,butadiene  8.347-13
 C4H6,1butyne    1.460-13
 C4H6,2butyne    7.001-14
 C4H6,cyclo-     3.087-15
 C4N2            9.4249-8
 *C5             9.105-10
 C5H6,1,3cyclo-  6.085-15
 C6H2            4.7897-9
 C6H5,phenyl     3.755-15
 C6H6            2.494-15
 *H              1.4572-2
 HCN             1.8029-2
 HCO             6.5240-6
 HCCN            4.0806-9
 HCCO            1.2248-7
 HNC             3.2516-3
 HNCO            9.0046-7
 HNO             1.439-10
 HNO2            5.638-16
 HO2             1.419-14
 *H2             1.3787-1
 HCHO,formaldehy 3.4899-7
 HCOOH           5.615-11
 H2O             2.4351-5
 H2O2            4.146-15
 *N              2.9202-6
 NCO             7.6355-8
 *NH             2.2626-6
 NH2             2.4526-6
 NH3             5.2744-6
 NH2OH           8.815-14
 *NO             1.7967-7
 NO2             2.027-15
 *N2             5.3500-1
 NCN             2.2345-8
 N2H2            4.312-10
 N2H4            8.536-14
 N2O             3.878-11
 N3              3.371-11
 N3H             2.619-11
 *O              5.6640-8
 *OH             9.5610-7
 *O2             3.945-12

  * THERMODYNAMIC PROPERTIES FITTED TO 20000.K


                     DETONATION PROPERTIES OF AN IDEAL REACTING GAS
 CASE =                

             REACTANT                       MOLES         ENERGY      TEMP
                                                         KJ/KG-MOL      K
 FUEL        C2H2,acetylene               1.0000000    228281.530    300.000
 OXIDANT     O2                           2.5000000        54.358    300.000
 OXIDANT     N2                           9.4048000        53.881    300.000

 O/F=    4.71107  %FUEL= 17.509863  R,EQ.RATIO= 2.800000  PHI,EQ.RATIO= 2.800000

 UNBURNED GAS

 P1, BAR           1.0000
 T1, K             300.00
 H1, KJ/KG        1536.72
 M1, (1/n)         28.315
 GAMMA1            1.3506
 SON VEL1,M/SEC     344.9

 BURNED GAS

 P, BAR            20.858
 T, K             3006.43
 RHO, KG/CU M    2.0060 0
 H, KJ/KG         2906.41
 U, KJ/KG         1866.58
 G, KJ/KG        -27710.7
 S, KJ/(KG)(K)    10.1839

 M, (1/n)          24.040
 (dLV/dLP)t      -1.00335
 (dLV/dLT)p        1.0611
 Cp, KJ/(KG)(K)    1.9709
 GAMMAs            1.2411
 SON VEL,M/SEC     1136.0

 DETONATION PARAMETERS

 P/P1              20.858
 T/T1              10.021
 M/M1              0.8490
 RHO/RHO1          1.7671
 DET MACH NUMBER   5.8198
 DET VEL,M/SEC     2007.4

 MOLE FRACTIONS

 *C              1.1393-6
 *CH             8.5761-7
 CH2             4.1963-6
 CH3             2.0746-5
 CH2OH           1.240-10
 CH3O            2.945-11
 CH4             1.4248-5
 CH3OH           1.906-11
 *CN             2.5342-4
 CNN             3.007-10
 *CO             2.8865-1
 *CO2            4.6280-6
 COOH            1.253-10
 *C2             3.1246-7
 C2H             2.8642-5
 C2H2,acetylene  1.7109-3
 C2H2,vinylidene 5.4771-6
 CH2CO,ketene    7.2074-7
 O(CH)2O         2.043-13
 C2H3,vinyl      7.3486-7
 CH3CN           1.0266-6
 CH3CO,acetyl    5.291-10
 C2H4            8.2288-7
 C2H4O,ethylen-o 2.114-14
 CH3CHO,ethanal  2.574-11
 CH3COOH         5.389-16
 C2H5            6.214-10
 C2H6            7.571-11
 C2H5OH          4.994-16
 CCN             2.6705-9
 CNC             2.5941-7
 OCCN            1.5609-7
 C2N2            9.9465-5
 C2O             9.0641-7
 *C3             1.3796-6
 C3H3,1-propynl  2.4670-9
 C3H3,2-propynl  1.4582-6
 C3H4,allene     2.4529-8
 C3H4,propyne    5.2180-8
 C3H4,cyclo-     5.921-10
 C3H5,allyl      2.378-10
 C3H6,propylene  3.022-11
 C3H6,cyclo-     2.313-13
 C3H6O,acetone   2.361-16
 C3H6O,propanal  3.388-16
 C3H7,n-propyl   8.687-15
 C3H7,i-propyl   5.449-15
 C3H8            1.020-15
 CNCOCN          2.377-11
 C3O2            5.5208-9
 *C4             2.0718-9
 C4H2,butadiyne  8.8009-6
 C4H4,1,3-cyclo- 4.540-12
 C4H6,butadiene  4.362-12
 C4H6,1butyne    7.611-13
 C4H6,2butyne    3.688-13
 C4H6,cyclo-     1.611-14
 C4H8,1-butene   3.720-16
 C4H8,cis2-buten 1.160-16
 C4H8,tr2-butene 1.318-16
 C4H8,isobutene  1.285-16
 C4N2            4.1346-7
 *C5             4.9860-9
 C5H6,1,3cyclo-  4.974-14
 C6H2            4.8031-8
 C6H5,phenyl     4.352-14
 C6H6            3.247-14
 *H              1.3117-2
 HCN             2.6064-2
 HCO             5.9824-6
 HCCN            7.2218-9
 HCCO            1.6270-7
 HNC             4.5624-3
 HNCO            8.7656-7
 HNO             8.051-11
 HNO2            2.052-16
 HO2             5.036-15
 *H2             1.3795-1
 HCHO,formaldehy 3.4204-7
 HCOOH           3.703-11
 H2O             1.6399-5
 H2O2            1.572-15
 *N              2.3057-6
 NCO             6.6046-8
 *NH             1.8860-6
 NH2             2.2084-6
 NH3             5.2999-6
 NH2OH           5.234-14
 *NO             1.0225-7
 NO2             7.043-16
 *N2             5.2746-1
 NCN             2.6662-8
 N2H2            3.750-10
 N2H4            7.794-14
 N2O             2.171-11
 N3              2.631-11
 N3H             2.177-11
 *O              3.0143-8
 *OH             5.6371-7
 *O2             1.416-12

  * THERMODYNAMIC PROPERTIES FITTED TO 20000.K


                     DETONATION PROPERTIES OF AN IDEAL REACTING GAS
 CASE =                

             REACTANT                       MOLES         ENERGY      TEMP
                                                         KJ/KG-MOL      K
 FUEL        C2H2,acetylene               1.0000000    228281.530    300.000
 OXIDANT     O2                           2.5000000        54.358    300.000
 OXIDANT     N2                           9.4048000        53.881    300.000

 O/F=    4.54862  %FUEL= 18.022512  R,EQ.RATIO= 2.900000  PHI,EQ.RATIO= 2.900000

 UNBURNED GAS

 P1, BAR           1.0000
 T1, K             300.00
 H1, KJ/KG        1581.66
 M1, (1/n)         28.299
 GAMMA1            1.3494
 SON VEL1,M/SEC     344.9

 BURNED GAS

 P, BAR            20.572
 T, K             2970.30
 RHO, KG/CU M    2.0047 0
 H, KJ/KG         2932.40
 U, KJ/KG         1906.17
 G, KJ/KG        -27354.5
 S, KJ/(KG)(K)    10.1966

 M, (1/n)          24.066
 (dLV/dLP)t      -1.00305
 (dLV/dLT)p        1.0563
 Cp, KJ/(KG)(K)    1.9578
 GAMMAs            1.2405
 SON VEL,M/SEC     1128.3

 DETONATION PARAMETERS

 P/P1              20.572
 T/T1               9.901
 M/M1              0.8504
 RHO/RHO1          1.7670
 DET MACH NUMBER   5.7806
 DET VEL,M/SEC     1993.6

 MOLE FRACTIONS

 *C              1.1255-6
 *CH             8.9342-7
 CH2             4.8174-6
 CH3             2.6641-5
 CH2OH           1.156-10
 CH3O            2.681-11
 CH4             2.0099-5
 CH3OH           1.927-11
 *CN             2.8349-4
 CNN             2.998-10
 *CO             2.8717-1
 *CO2            3.5196-6
 COOH            8.679-11
 *C2             4.0493-7
 C2H             4.1793-5
 C2H2,acetylene  2.9220-3
 C2H2,vinylidene 8.6011-6
 CH2CO,ketene    9.4502-7
 O(CH)2O         1.932-13
 C2H3,vinyl      1.2104-6
 CH3CN           1.8583-6
 CH3CO,acetyl    6.740-10
 C2H4            1.5151-6
 C2H4O,ethylen-o 2.731-14
 CH3CHO,ethanal  3.524-11
 CH3COOH         5.576-16
 C2H5            1.1010-9
 C2H6            1.468-10
 C2H5OH          6.962-16
 CCN             3.4474-9
 CNC             3.5460-7
 OCCN            1.8017-7
 C2N2            1.6009-4
 C2O             1.0192-6
 *C3             2.4813-6
 C3H3,1-propynl  5.2189-9
 C3H3,2-propynl  3.2515-6
 C3H4,allene     5.8120-8
 C3H4,propyne    1.2409-7
 C3H4,cyclo-     1.3459-9
 C3H5,allyl      5.652-10
 C3H6,propylene  7.677-11
 C3H6,cyclo-     5.765-13
 C3H6O,acetone   4.507-16
 C3H6O,propanal  6.346-16
 C3H7,n-propyl   2.108-14
 C3H7,i-propyl   1.331-14
 C3H8            2.710-15
 CNCOCN          3.641-11
 C3O2            6.8950-9
 *C4             4.6261-9
 C4H2,butadiyne  2.5664-5
 C4H4,1,3-cyclo- 1.350-11
 C4H6,butadiene  1.428-11
 C4H6,1butyne    2.483-12
 C4H6,2butyne    1.216-12
 C4H6,cyclo-     5.262-14
 C4H8,1-butene   1.296-15
 C4H8,cis2-buten 4.066-16
 C4H8,tr2-butene 4.617-16
 C4H8,isobutene  4.512-16
 C4N2            1.1379-6
 *C5             1.5244-8
 C5H6,1,3cyclo-  2.263-13
 C6H2            2.3893-7
 C6H5,phenyl     2.499-13
 C6H6            2.093-13
 C7H7,benzyl     2.335-16
 *H              1.1811-2
 HCN             3.3530-2
 HCO             5.4876-6
 HCCN            1.0131-8
 HCCO            1.9239-7
 HNC             5.6972-3
 HNCO            8.5362-7
 HNO             5.071-11
 HO2             2.262-15
 *H2             1.3795-1
 HCHO,formaldehy 3.3518-7
 HCOOH           2.746-11
 H2O             1.2410-5
 H2O2            7.538-16
 *N              1.8233-6
 NCO             5.7198-8
 *NH             1.5738-6
 NH2             1.9895-6
 NH3             5.3241-6
 NH2OH           3.496-14
 *NO             6.5487-8
 NO2             3.098-16
 *N2             5.2029-1
 NCN             2.8355-8
 N2H2            3.264-10
 N2H4            7.121-14
 N2O             1.369-11
 N3              2.058-11
 N3H             1.814-11
 *O              1.8057-8
 *OH             3.7379-7
 *O2             6.435-13

  * THERMODYNAMIC PROPERTIES FITTED TO 20000.K


                     DETONATION PROPERTIES OF AN IDEAL REACTING GAS
 CASE =                

             REACTANT                       MOLES         ENERGY      TEMP
                                                         KJ/KG-MOL      K
 FUEL        C2H2,acetylene               1.0000000    228281.530    300.000
 OXIDANT     O2                           2.5000000        54.358    300.000
 OXIDANT     N2                           9.4048000        53.881    300.000

 O/F=    4.39700  %FUEL= 18.528827  R,EQ.RATIO= 3.000000  PHI,EQ.RATIO= 3.000000

 UNBURNED GAS

 P1, BAR           1.0000
 T1, K             300.00
 H1, KJ/KG        1626.04
 M1, (1/n)         28.284
 GAMMA1            1.3482
 SON VEL1,M/SEC     344.8

 BURNED GAS

 P, BAR            20.297
 T, K             2935.25
 RHO, KG/CU M    2.0034 0
 H, KJ/KG         2958.49
 U, KJ/KG         1945.41
 G, KJ/KG        -27004.7
 S, KJ/(KG)(K)    10.2081

 M, (1/n)          24.090
 MW, MOL WT        24.090
 (dLV/dLP)t      -1.00278
 (dLV/dLT)p        1.0519
 Cp, KJ/(KG)(K)    1.9462
 GAMMAs            1.2398
 SON VEL,M/SEC     1120.7

 DETONATION PARAMETERS

 P/P1              20.297
 T/T1               9.784
 M/M1              0.8517
 RHO/RHO1          1.7668
 DET MACH NUMBER   5.7426
 DET VEL,M/SEC     1980.2

 MOLE FRACTIONS

 *C              1.0444-6
 *CH             8.7390-7
 CH2             5.1888-6
 CH3             3.2075-5
 CH2OH           1.078-10
 CH3O            2.441-11
 CH4             2.6571-5
 CH3OH           1.949-11
 *CN             2.9777-4
 CNN             2.808-10
 *CO             2.8569-1
 *CO2            2.8547-6
 COOH            6.414-11
 *C2             4.6228-7
 C2H             5.3681-5
 C2H2,acetylene  4.3887-3
 C2H2,vinylidene 1.1883-5
 CH2CO,ketene    1.1620-6
 O(CH)2O         1.827-13
 C2H3,vinyl      1.7534-6
 CH3CN           2.9580-6
 CH3CO,acetyl    8.052-10
 C2H4            2.4517-6
 C2H4O,ethylen-o 3.308-14
 CH3CHO,ethanal  4.523-11
 CH3COOH         5.769-16
 C2H5            1.7148-9
 C2H6            2.501-10
 C2H5OH          9.096-16
 CCN             3.9219-9
 CNC             4.2702-7
 OCCN            1.9525-7
 C2N2            2.2686-4
 C2O             1.0758-6
 *C3             3.6855-6
 C3H3,1-propynl  9.1084-9
 C3H3,2-propynl  5.9797-6
 C3H4,allene     1.1353-7
 C3H4,propyne    2.4330-7
 C3H4,cyclo-     2.5227-9
 C3H5,allyl      1.1071-9
 C3H6,propylene  1.607-10
 C3H6,cyclo-     1.184-12
 C3H6O,acetone   7.561-16
 C3H6O,propanal  1.045-15
 C3H7,n-propyl   4.214-14
 C3H7,i-propyl   2.678-14
 C3H8            5.931-15
 CNCOCN          4.911-11
 C3O2            8.0815-9
 *C4             8.0055-9
 C4H2,butadiyne  5.7894-5
 C4H4,1,3-cyclo- 3.105-11
 C4H6,butadiene  3.618-11
 C4H6,1butyne    6.262-12
 C4H6,2butyne    3.098-12
 C4H6,cyclo-     1.329-13
 C4H8,1-butene   3.488-15
 C4H8,cis2-buten 1.101-15
 C4H8,tr2-butene 1.250-15
 C4H8,isobutene  1.224-15
 C4N2            2.4257-6
 *C5             3.3864-8
 C5H6,1,3cyclo-  7.463-13
 C6H2            8.0892-7
 C6H5,phenyl     9.758-13
 C6H6            9.165-13
 C7H7,benzyl     1.227-15
 *H              1.0639-2
 HCN             4.0461-2
 HCO             5.0358-6
 HCCN            1.2518-8
 HCCO            2.1350-7
 HNC             6.6745-3
 HNCO            8.3163-7
 HNO             3.410-11
 HO2             1.157-15
 *H2             1.3790-1
 HCHO,formaldehy 3.2845-7
 HCOOH           2.171-11
 H2O             1.0012-5
 H2O2            4.115-16
 *N              1.4442-6
 NCO             4.9597-8
 *NH             1.3147-6
 NH2             1.7934-6
 NH3             5.3478-6
 NH2OH           2.492-14
 *NO             4.4783-8
 NO2             1.553-16
 *N2             5.1347-1
 NCN             2.8331-8
 N2H2            2.846-10
 N2H4            6.511-14
 N2O             9.218-12
 N3              1.614-11
 N3H             1.514-11
 *O              1.1550-8
 *OH             2.6448-7
 *O2             3.330-13

  * THERMODYNAMIC PROPERTIES FITTED TO 20000.K


                     DETONATION PROPERTIES OF AN IDEAL REACTING GAS
 CASE =                

             REACTANT                       MOLES         ENERGY      TEMP
                                                         KJ/KG-MOL      K
 FUEL        C2H2,acetylene               1.0000000    228281.530    300.000
 OXIDANT     O2                           2.5000000        54.358    300.000
 OXIDANT     N2                           9.4048000        53.881    300.000

 O/F=    4.25516  %FUEL= 19.028927  R,EQ.RATIO= 3.100000  PHI,EQ.RATIO= 3.100000

 UNBURNED GAS

 P1, BAR           1.0000
 T1, K             300.00
 H1, KJ/KG        1669.87
 M1, (1/n)         28.269
 GAMMA1            1.3471
 SON VEL1,M/SEC     344.8

 BURNED GAS

 P, BAR            20.029
 T, K             2901.20
 RHO, KG/CU M    2.0022 0
 H, KJ/KG         2984.62
 U, KJ/KG         1984.25
 G, KJ/KG        -26661.5
 S, KJ/(KG)(K)    10.2185

 M, (1/n)          24.113
 MW, MOL WT        24.113
 (dLV/dLP)t      -1.00254
 (dLV/dLT)p        1.0478
 Cp, KJ/(KG)(K)    1.9359
 GAMMAs            1.2392
 SON VEL,M/SEC     1113.4

 DETONATION PARAMETERS

 P/P1              20.029
 T/T1               9.671
 M/M1              0.8530
 RHO/RHO1          1.7667
 DET MACH NUMBER   5.7054
 DET VEL,M/SEC     1967.0

 MOLE FRACTIONS

 *C              9.3185-7
 *CH             8.2164-7
 CH2             5.3686-6
 CH3             3.7070-5
 CH2OH           1.005-10
 CH3O            2.224-11
 CH4             3.3711-5
 CH3OH           1.970-11
 *CN             3.0062-4
 CNN             2.531-10
 *CO             2.8422-1
 *CO2            2.4121-6
 COOH            4.940-11
 *C2             4.8721-7
 C2H             6.3612-5
 C2H2,acetylene  6.0760-3
 C2H2,vinylidene 1.5137-5
 CH2CO,ketene    1.3718-6
 O(CH)2O         1.729-13
 C2H3,vinyl      2.3415-6
 CH3CN           4.3397-6
 CH3CO,acetyl    9.239-10
 C2H4            3.6551-6
 C2H4O,ethylen-o 3.847-14
 CH3CHO,ethanal  5.573-11
 CH3COOH         5.968-16
 C2H5            2.4611-9
 C2H6            3.923-10
 C2H5OH          1.141-15
 CCN             4.1205-9
 CNC             4.7474-7
 OCCN            2.0338-7
 C2N2            2.9665-4
 C2O             1.0914-6
 *C3             4.8504-6
 C3H3,1-propynl  1.4073-8
 C3H3,2-propynl  9.7327-6
 C3H4,allene     1.9622-7
 C3H4,propyne    4.2202-7
 C3H4,cyclo-     4.1847-9
 C3H5,allyl      1.9189-9
 C3H6,propylene  2.976-10
 C3H6,cyclo-     2.151-12
 C3H6O,acetone   1.169-15
 C3H6O,propanal  1.585-15
 C3H7,n-propyl   7.454-14
 C3H7,i-propyl   4.766-14
 C3H8            1.148-14
 CNCOCN          6.117-11
 C3O2            9.1001-9
 *C4             1.1793-8
 C4H2,butadiyne  1.1099-4
 C4H4,1,3-cyclo- 6.070-11
 C4H6,butadiene  7.789-11
 C4H6,1butyne    1.341-11
 C4H6,2butyne    6.704-12
 C4H6,cyclo-     2.849-13
 C4H8,1-butene   7.970-15
 C4H8,cis2-buten 2.530-15
 C4H8,tr2-butene 2.871-15
 C4H8,isobutene  2.821-15
 C4N2            4.3991-6
 *C5             6.1465-8
 C5H6,1,3cyclo-  2.007-12
 C6H2            2.1461-6
 C6H5,phenyl     2.983-12
 C6H6            3.141-12
 C7H7,benzyl     4.846-15
 C7H8            3.564-16
 C8H8,styrene    1.226-16
 *H              9.5875-3
 HCN             4.6890-2
 HCO             4.6230-6
 HCCN            1.4277-8
 HCCO            2.2761-7
 HNC             7.5105-3
 HNCO            8.1055-7
 HNO             2.392-11
 HO2             6.430-16
 *H2             1.3781-1
 HCHO,formaldehy 3.2186-7
 HCOOH           1.789-11
 H2O             8.4115-6
 H2O2            2.439-16
 *N              1.1455-6
 NCO             4.3055-8
 *NH             1.0995-6
 NH2             1.6176-6
 NH3             5.3715-6
 NH2OH           1.852-14
 *NO             3.1936-8
 *N2             5.0698-1
 NCN             2.7225-8
 N2H2            2.484-10
 N2H4            5.958-14
 N2O             6.477-12
 N3              1.268-11
 N3H             1.265-11
 *O              7.7055-9
 *OH             1.9503-7
 *O2             1.872-13

  * THERMODYNAMIC PROPERTIES FITTED TO 20000.K


                     DETONATION PROPERTIES OF AN IDEAL REACTING GAS
 CASE =                

             REACTANT                       MOLES         ENERGY      TEMP
                                                         KJ/KG-MOL      K
 FUEL        C2H2,acetylene               1.0000000    228281.530    300.000
 OXIDANT     O2                           2.5000000        54.358    300.000
 OXIDANT     N2                           9.4048000        53.881    300.000

 O/F=    4.12218  %FUEL= 19.522924  R,EQ.RATIO= 3.200000  PHI,EQ.RATIO= 3.200000

 UNBURNED GAS

 P1, BAR           1.0000
 T1, K             300.00
 H1, KJ/KG        1713.18
 M1, (1/n)         28.254
 GAMMA1            1.3459
 SON VEL1,M/SEC     344.7

 BURNED GAS

 P, BAR            20.678
 T, K             2911.73
 RHO, KG/CU M    2.0601 0
 H, KJ/KG         3059.37
 U, KJ/KG         2055.65
 G, KJ/KG        -26726.8
 S, KJ/(KG)(K)    10.2297

 M, (1/n)          24.120
 MW, MOL WT        23.962
 (dLV/dLP)t      -1.00262
 (dLV/dLT)p        1.0469
 Cp, KJ/(KG)(K)    2.6555
 GAMMAs            1.1623
 SON VEL,M/SEC     1080.1

 DETONATION PARAMETERS

 P/P1              20.678
 T/T1               9.706
 M/M1              0.8537
 RHO/RHO1          1.8187
 DET MACH NUMBER   5.6989
 DET VEL,M/SEC     1964.4

 MOLE FRACTIONS

 *C              1.0240-6
 *CH             9.0836-7
 CH2             5.8911-6
 CH3             4.0188-5
 CH2OH           1.083-10
 CH3O            2.415-11
 CH4             3.6302-5
 CH3OH           2.117-11
 *CN             3.2022-4
 CNN             2.813-10
 *CO             2.8071-1
 *CO2            2.3308-6
 COOH            5.024-11
 *C2             5.5788-7
 C2H             7.1815-5
 C2H2,acetylene  6.6828-3
 C2H2,vinylidene 1.7086-5
 CH2CO,ketene    1.4743-6
 O(CH)2O         1.851-13
 C2H3,vinyl      2.6633-6
 CH3CN           4.8291-6
 CH3CO,acetyl    1.0244-9
 C2H4            4.1082-6
 C2H4O,ethylen-o 4.344-14
 CH3CHO,ethanal  6.181-11
 CH3COOH         6.499-16
 C2H5            2.8624-9
 C2H6            4.538-10
 C2H5OH          1.316-15
 CCN             4.7577-9
 CNC             5.3858-7
 OCCN            2.1893-7
 C2N2            3.2232-4
 C2O             1.1759-6
 *C3             5.6880-6
 C3H3,1-propynl  1.6788-8
 C3H3,2-propynl  1.1424-5
 C3H4,allene     2.3115-7
 C3H4,propyne    4.9659-7
 C3H4,cyclo-     4.9932-9
 C3H5,allyl      2.3096-9
 C3H6,propylene  3.589-10
 C3H6,cyclo-     2.609-12
 C3H6O,acetone   1.386-15
 C3H6O,propanal  1.890-15
 C3H7,n-propyl   9.323-14
 C3H7,i-propyl   5.950-14
 C3H8            1.428-14
 CNCOCN          6.886-11
 C3O2            9.6852-9
 *C4             1.4654-8
 C4H2,butadiyne  1.3287-4
 C4H4,1,3-cyclo- 7.553-11
 C4H6,butadiene  9.834-11
 C4H6,1butyne    1.696-11
 C4H6,2butyne    8.451-12
 C4H6,cyclo-     3.602-13
 C4H8,1-butene   1.033-14
 C4H8,cis2-buten 3.273-15
 C4H8,tr2-butene 3.714-15
 C4H8,isobutene  3.646-15
 C4N2            5.1996-6
 *C5             7.8548-8
 C5H6,1,3cyclo-  2.595-12
 C5H8,cyclo-     1.217-16
 C6H2            2.7965-6
 C6H5,phenyl     3.977-12
 C6H6            4.133-12
 C7H7,benzyl     6.847-15
 C7H8            5.030-16
 C8H8,styrene    1.800-16
 *H              9.7861-3
 HCN             4.8928-2
 HCO             4.7877-6
 HCCN            1.6432-8
 HCCO            2.4692-7
 HNC             7.9093-3
 HNCO            8.3001-7
 HNO             2.473-11
 HO2             6.596-16
 *H2             1.3929-1
 HCHO,formaldehy 3.3401-7
 HCOOH           1.822-11
 H2O             8.3438-6
 H2O2            2.508-16
 *N              1.1986-6
 NCO             4.4697-8
 *NH             1.1572-6
 NH2             1.7005-6
 NH3             5.5840-6
 NH2OH           1.967-14
 *NO             3.2116-8
 *N2             4.9914-1
 NCN             2.9667-8
 N2H2            2.658-10
 N2H4            6.569-14
 N2O             6.592-12
 N3              1.350-11
 N3H             1.352-11
 *O              7.8536-9
 *OH             1.9703-7
 *O2             1.871-13
 C(gr)           6.5353-3

  * THERMODYNAMIC PROPERTIES FITTED TO 20000.K


                     DETONATION PROPERTIES OF AN IDEAL REACTING GAS
 CASE =                

             REACTANT                       MOLES         ENERGY      TEMP
                                                         KJ/KG-MOL      K
 FUEL        C2H2,acetylene               1.0000000    228281.530    300.000
 OXIDANT     O2                           2.5000000        54.358    300.000
 OXIDANT     N2                           9.4048000        53.881    300.000

 O/F=    3.99727  %FUEL= 20.010931  R,EQ.RATIO= 3.300000  PHI,EQ.RATIO= 3.300000

 UNBURNED GAS

 P1, BAR           1.0000
 T1, K             300.00
 H1, KJ/KG        1755.95
 M1, (1/n)         28.240
 GAMMA1            1.3448
 SON VEL1,M/SEC     344.7

 BURNED GAS

 P, BAR            20.692
 T, K             2913.90
 RHO, KG/CU M    2.0607 0
 H, KJ/KG         3103.43
 U, KJ/KG         2099.29
 G, KJ/KG        -26738.0
 S, KJ/(KG)(K)    10.2411

 M, (1/n)          24.128
 MW, MOL WT        23.747
 (dLV/dLP)t      -1.00268
 (dLV/dLT)p        1.0478
 Cp, KJ/(KG)(K)    2.6855
 GAMMAs            1.1604
 SON VEL,M/SEC     1079.4

 DETONATION PARAMETERS

 P/P1              20.692
 T/T1               9.713
 M/M1              0.8544
 RHO/RHO1          1.8201
 DET MACH NUMBER   5.7006
 DET VEL,M/SEC     1964.7

 MOLE FRACTIONS

 *C              1.0362-6
 *CH             9.2845-7
 CH2             6.0651-6
 CH3             4.1635-5
 CH2OH           1.115-10
 CH3O            2.490-11
 CH4             3.7887-5
 CH3OH           2.198-11
 *CN             3.2022-4
 CNN             2.823-10
 *CO             2.7650-1
 *CO2            2.2739-6
 COOH            4.997-11
 *C2             5.6631-7
 C2H             7.3327-5
 C2H2,acetylene  6.8468-3
 C2H2,vinylidene 1.7599-5
 CH2CO,ketene    1.4957-6
 O(CH)2O         1.867-13
 C2H3,vinyl      2.7717-6
 CH3CN           4.9758-6
 CH3CO,acetyl    1.0552-9
 C2H4            4.3024-6
 C2H4O,ethylen-o 4.530-14
 CH3CHO,ethanal  6.422-11
 CH3COOH         6.693-16
 C2H5            3.0454-9
 C2H6            4.866-10
 C2H5OH          1.402-15
 CCN             4.8115-9
 CNC             5.4271-7
 OCCN            2.1714-7
 C2N2            3.2016-4
 C2O             1.1728-6
 *C3             5.7714-6
 C3H3,1-propynl  1.7549-8
 C3H3,2-propynl  1.1902-5
 C3H4,allene     2.4313-7
 C3H4,propyne    5.2220-7
 C3H4,cyclo-     5.2657-9
 C3H5,allyl      2.4615-9
 C3H6,propylene  3.860-10
 C3H6,cyclo-     2.809-12
 C3H6O,acetone   1.478-15
 C3H6O,propanal  2.018-15
 C3H7,n-propyl   1.019-13
 C3H7,i-propyl   6.501-14
 C3H8            1.573-14
 CNCOCN          6.818-11
 C3O2            9.5358-9
 *C4             1.4966-8
 C4H2,butadiyne  1.3704-4
 C4H4,1,3-cyclo- 7.991-11
 C4H6,butadiene  1.062-10
 C4H6,1butyne    1.832-11
 C4H6,2butyne    9.124-12
 C4H6,cyclo-     3.891-13
 C4H8,1-butene   1.141-14
 C4H8,cis2-buten 3.615-15
 C4H8,tr2-butene 4.103-15
 C4H8,isobutene  4.027-15
 C4N2            5.1991-6
 *C5             8.0258-8
 C5H6,1,3cyclo-  2.801-12
 C5H8,cyclo-     1.346-16
 C6H2            2.9040-6
 C6H5,phenyl     4.260-12
 C6H6            4.453-12
 C7H7,benzyl     7.513-15
 C7H8            5.567-16
 C8H8,styrene    1.997-16
 *H              9.8925-3
 HCN             4.9151-2
 HCO             4.8038-6
 HCCN            1.6753-8
 HCCO            2.4880-7
 HNC             7.9603-3
 HNCO            8.2635-7
 HNO             2.480-11
 HO2             6.607-16
 *H2             1.4175-1
 HCHO,formaldehy 3.3822-7
 HCOOH           1.828-11
 H2O             8.4160-6
 H2O2            2.535-16
 *N              1.2006-6
 NCO             4.4236-8
 *NH             1.1708-6
 NH2             1.7351-6
 NH3             5.7346-6
 NH2OH           2.018-14
 *NO             3.1747-8
 *N2             4.9108-1
 NCN             2.9644-8
 N2H2            2.707-10
 N2H4            6.851-14
 N2O             6.497-12
 N3              1.343-11
 N3H             1.357-11
 *O              7.8275-9
 *OH             1.9774-7
 *O2             1.848-13
 C(gr)           1.5791-2

  * THERMODYNAMIC PROPERTIES FITTED TO 20000.K


                     DETONATION PROPERTIES OF AN IDEAL REACTING GAS
 CASE =                

             REACTANT                       MOLES         ENERGY      TEMP
                                                         KJ/KG-MOL      K
 FUEL        C2H2,acetylene               1.0000000    228281.530    300.000
 OXIDANT     O2                           2.5000000        54.358    300.000
 OXIDANT     N2                           9.4048000        53.881    300.000

 O/F=    3.87970  %FUEL= 20.493054  R,EQ.RATIO= 3.400000  PHI,EQ.RATIO= 3.400000

 UNBURNED GAS

 P1, BAR           1.0000
 T1, K             300.00
 H1, KJ/KG        1798.21
 M1, (1/n)         28.225
 GAMMA1            1.3437
 SON VEL1,M/SEC     344.6

 BURNED GAS

 P, BAR            20.705
 T, K             2916.02
 RHO, KG/CU M    2.0611 0
 H, KJ/KG         3146.94
 U, KJ/KG         2142.38
 G, KJ/KG        -26748.9
 S, KJ/(KG)(K)    10.2523

 M, (1/n)          24.135
 MW, MOL WT        23.537
 (dLV/dLP)t      -1.00273
 (dLV/dLT)p        1.0488
 Cp, KJ/(KG)(K)    2.7150
 GAMMAs            1.1585
 SON VEL,M/SEC     1078.8

 DETONATION PARAMETERS

 P/P1              20.705
 T/T1               9.720
 M/M1              0.8551
 RHO/RHO1          1.8215
 DET MACH NUMBER   5.7023
 DET VEL,M/SEC     1965.0

 MOLE FRACTIONS

 *C              1.0483-6
 *CH             9.4833-7
 CH2             6.2377-6
 CH3             4.3074-5
 CH2OH           1.146-10
 CH3O            2.563-11
 CH4             3.9473-5
 CH3OH           2.277-11
 *CN             3.2021-4
 CNN             2.832-10
 *CO             2.7241-1
 *CO2            2.2191-6
 COOH            4.968-11
 *C2             5.7467-7
 C2H             7.4822-5
 C2H2,acetylene  7.0082-3
 C2H2,vinylidene 1.8108-5
 CH2CO,ketene    1.5161-6
 O(CH)2O         1.882-13
 C2H3,vinyl      2.8803-6
 CH3CN           5.1201-6
 CH3CO,acetyl    1.0853-9
 C2H4            4.4976-6
 C2H4O,ethylen-o 4.716-14
 CH3CHO,ethanal  6.662-11
 CH3COOH         6.882-16
 C2H5            3.2325-9
 C2H6            5.202-10
 C2H5OH          1.491-15
 CCN             4.8644-9
 CNC             5.4673-7
 OCCN            2.1535-7
 C2N2            3.1803-4
 C2O             1.1697-6
 *C3             5.8541-6
 C3H3,1-propynl  1.8316-8
 C3H3,2-propynl  1.2381-5
 C3H4,allene     2.5524-7
 C3H4,propyne    5.4808-7
 C3H4,cyclo-     5.5421-9
 C3H5,allyl      2.6170-9
 C3H6,propylene  4.140-10
 C3H6,cyclo-     3.016-12
 C3H6O,acetone   1.572-15
 C3H6O,propanal  2.149-15
 C3H7,n-propyl   1.110-13
 C3H7,i-propyl   7.080-14
 C3H8            1.726-14
 CNCOCN          6.751-11
 C3O2            9.3898-9
 *C4             1.5279-8
 C4H2,butadiyne  1.4120-4
 C4H4,1,3-cyclo- 8.438-11
 C4H6,butadiene  1.144-10
 C4H6,1butyne    1.974-11
 C4H6,2butyne    9.821-12
 C4H6,cyclo-     4.191-13
 C4H8,1-butene   1.256-14
 C4H8,cis2-buten 3.978-15
 C4H8,tr2-butene 4.515-15
 C4H8,isobutene  4.431-15
 C4N2            5.1980-6
 *C5             8.1965-8
 C5H6,1,3cyclo-  3.015-12
 C5H8,cyclo-     1.484-16
 C6H2            3.0119-6
 C6H5,phenyl     4.552-12
 C6H6            4.785-12
 C7H7,benzyl     8.215-15
 C7H8            6.136-16
 C8H8,styrene    2.208-16
 *H              9.9957-3
 HCN             4.9357-2
 HCO             4.8181-6
 HCCN            1.7068-8
 HCCO            2.5057-7
 HNC             8.0083-3
 HNCO            8.2247-7
 HNO             2.486-11
 HO2             6.615-16
 *H2             1.4415-1
 HCHO,formaldehy 3.4221-7
 HCOOH           1.834-11
 H2O             8.4828-6
 H2O2            2.561-16
 *N              1.2025-6
 NCO             4.3782-8
 *NH             1.1838-6
 NH2             1.7688-6
 NH3             5.8819-6
 NH2OH           2.068-14
 *NO             3.1385-8
 *N2             4.8326-1
 NCN             2.9618-8
 N2H2            2.754-10
 N2H4            7.131-14
 N2O             6.404-12
 N3              1.335-11
 N3H             1.361-11
 *O              7.8011-9
 *OH             1.9838-7
 *O2             1.825-13
 C(gr)           2.4780-2

  * THERMODYNAMIC PROPERTIES FITTED TO 20000.K


                     DETONATION PROPERTIES OF AN IDEAL REACTING GAS
 CASE =                

             REACTANT                       MOLES         ENERGY      TEMP
                                                         KJ/KG-MOL      K
 FUEL        C2H2,acetylene               1.0000000    228281.530    300.000
 OXIDANT     O2                           2.5000000        54.358    300.000
 OXIDANT     N2                           9.4048000        53.881    300.000

 O/F=    3.76885  %FUEL= 20.969401  R,EQ.RATIO= 3.500000  PHI,EQ.RATIO= 3.500000

 UNBURNED GAS

 P1, BAR           1.0000
 T1, K             300.00
 H1, KJ/KG        1839.97
 M1, (1/n)         28.211
 GAMMA1            1.3427
 SON VEL1,M/SEC     344.5

 BURNED GAS

 P, BAR            20.718
 T, K             2918.10
 RHO, KG/CU M    2.0616 0
 H, KJ/KG         3189.90
 U, KJ/KG         2184.94
 G, KJ/KG        -26759.3
 S, KJ/(KG)(K)    10.2632

 M, (1/n)          24.143
 MW, MOL WT        23.334
 (dLV/dLP)t      -1.00279
 (dLV/dLT)p        1.0497
 Cp, KJ/(KG)(K)    2.7441
 GAMMAs            1.1567
 SON VEL,M/SEC     1078.2

 DETONATION PARAMETERS

 P/P1              20.718
 T/T1               9.727
 M/M1              0.8558
 RHO/RHO1          1.8228
 DET MACH NUMBER   5.7039
 DET VEL,M/SEC     1965.3

 MOLE FRACTIONS

 *C              1.0603-6
 *CH             9.6801-7
 CH2             6.4088-6
 CH3             4.4505-5
 CH2OH           1.177-10
 CH3O            2.636-11
 CH4             4.1058-5
 CH3OH           2.356-11
 *CN             3.2017-4
 CNN             2.840-10
 *CO             2.6844-1
 *CO2            2.1662-6
 COOH            4.938-11
 *C2             5.8297-7
 C2H             7.6299-5
 C2H2,acetylene  7.1670-3
 C2H2,vinylidene 1.8613-5
 CH2CO,ketene    1.5356-6
 O(CH)2O         1.895-13
 C2H3,vinyl      2.9889-6
 CH3CN           5.2621-6
 CH3CO,acetyl    1.1150-9
 C2H4            4.6937-6
 C2H4O,ethylen-o 4.901-14
 CH3CHO,ethanal  6.899-11
 CH3COOH         7.065-16
 C2H5            3.4234-9
 C2H6            5.548-10
 C2H5OH          1.581-15
 CCN             4.9163-9
 CNC             5.5066-7
 OCCN            2.1359-7
 C2N2            3.1591-4
 C2O             1.1665-6
 *C3             5.9362-6
 C3H3,1-propynl  1.9087-8
 C3H3,2-propynl  1.2862-5
 C3H4,allene     2.6747-7
 C3H4,propyne    5.7421-7
 C3H4,cyclo-     5.8222-9
 C3H5,allyl      2.7761-9
 C3H6,propylene  4.428-10
 C3H6,cyclo-     3.230-12
 C3H6O,acetone   1.668-15
 C3H6O,propanal  2.282-15
 C3H7,n-propyl   1.206-13
 C3H7,i-propyl   7.687-14
 C3H8            1.887-14
 CNCOCN          6.685-11
 C3O2            9.2470-9
 *C4             1.5590-8
 C4H2,butadiyne  1.4533-4
 C4H4,1,3-cyclo- 8.892-11
 C4H6,butadiene  1.228-10
 C4H6,1butyne    2.120-11
 C4H6,2butyne    1.054-11
 C4H6,cyclo-     4.501-13
 C4H8,1-butene   1.378-14
 C4H8,cis2-buten 4.362-15
 C4H8,tr2-butene 4.950-15
 C4H8,isobutene  4.857-15
 C4N2            5.1962-6
 *C5             8.3670-8
 C5H6,1,3cyclo-  3.236-12
 C5H8,cyclo-     1.629-16
 C6H2            3.1202-6
 C6H5,phenyl     4.851-12
 C6H6            5.128-12
 C7H7,benzyl     8.954-15
 C7H8            6.740-16
 C8H8,styrene    2.431-16
 *H              1.0096-2
 HCN             4.9547-2
 HCO             4.8307-6
 HCCN            1.7378-8
 HCCO            2.5224-7
 HNC             8.0536-3
 HNCO            8.1840-7
 HNO             2.491-11
 HO2             6.620-16
 *H2             1.4648-1
 HCHO,formaldehy 3.4600-7
 HCOOH           1.838-11
 H2O             8.5445-6
 H2O2            2.585-16
 *N              1.2042-6
 NCO             4.3335-8
 *NH             1.1965-6
 NH2             1.8016-6
 NH3             6.0260-6
 NH2OH           2.117-14
 *NO             3.1029-8
 *N2             4.7567-1
 NCN             2.9588-8
 N2H2            2.800-10
 N2H4            7.410-14
 N2O             6.312-12
 N3              1.328-11
 N3H             1.365-11
 *O              7.7745-9
 *OH             1.9894-7
 *O2             1.803-13
 C(gr)           3.3512-2

  * THERMODYNAMIC PROPERTIES FITTED TO 20000.K


                     DETONATION PROPERTIES OF AN IDEAL REACTING GAS
 CASE =                

             REACTANT                       MOLES         ENERGY      TEMP
                                                         KJ/KG-MOL      K
 FUEL        C2H2,acetylene               1.0000000    228281.530    300.000
 OXIDANT     O2                           2.5000000        54.358    300.000
 OXIDANT     N2                           9.4048000        53.881    300.000

 O/F=    3.66416  %FUEL= 21.440074  R,EQ.RATIO= 3.600000  PHI,EQ.RATIO= 3.600000

 UNBURNED GAS

 P1, BAR           1.0000
 T1, K             300.00
 H1, KJ/KG        1881.23
 M1, (1/n)         28.197
 GAMMA1            1.3416
 SON VEL1,M/SEC     344.5

 BURNED GAS

 P, BAR            20.730
 T, K             2920.14
 RHO, KG/CU M    2.0620 0
 H, KJ/KG         3232.32
 U, KJ/KG         2226.97
 G, KJ/KG        -26769.3
 S, KJ/(KG)(K)    10.2740

 M, (1/n)          24.150
 MW, MOL WT        23.136
 (dLV/dLP)t      -1.00284
 (dLV/dLT)p        1.0506
 Cp, KJ/(KG)(K)    2.7728
 GAMMAs            1.1550
 SON VEL,M/SEC     1077.6

 DETONATION PARAMETERS

 P/P1              20.730
 T/T1               9.734
 M/M1              0.8565
 RHO/RHO1          1.8240
 DET MACH NUMBER   5.7055
 DET VEL,M/SEC     1965.5

 MOLE FRACTIONS

 *C              1.0721-6
 *CH             9.8748-7
 CH2             6.5786-6
 CH3             4.5928-5
 CH2OH           1.207-10
 CH3O            2.707-11
 CH4             4.2641-5
 CH3OH           2.433-11
 *CN             3.2012-4
 CNN             2.848-10
 *CO             2.6458-1
 *CO2            2.1153-6
 COOH            4.907-11
 *C2             5.9120-7
 C2H             7.7759-5
 C2H2,acetylene  7.3235-3
 C2H2,vinylidene 1.9114-5
 CH2CO,ketene    1.5542-6
 O(CH)2O         1.906-13
 C2H3,vinyl      3.0975-6
 CH3CN           5.4017-6
 CH3CO,acetyl    1.1440-9
 C2H4            4.8904-6
 C2H4O,ethylen-o 5.085-14
 CH3CHO,ethanal  7.133-11
 CH3COOH         7.242-16
 C2H5            3.6180-9
 C2H6            5.902-10
 C2H5OH          1.672-15
 CCN             4.9673-9
 CNC             5.5449-7
 OCCN            2.1183-7
 C2N2            3.1382-4
 C2O             1.1633-6
 *C3             6.0175-6
 C3H3,1-propynl  1.9863-8
 C3H3,2-propynl  1.3343-5
 C3H4,allene     2.7980-7
 C3H4,propyne    6.0057-7
 C3H4,cyclo-     6.1058-9
 C3H5,allyl      2.9386-9
 C3H6,propylene  4.725-10
 C3H6,cyclo-     3.451-12
 C3H6O,acetone   1.765-15
 C3H6O,propanal  2.418-15
 C3H7,n-propyl   1.306-13
 C3H7,i-propyl   8.320-14
 C3H8            2.057-14
 CNCOCN          6.619-11
 C3O2            9.1075-9
 *C4             1.5901-8
 C4H2,butadiyne  1.4944-4
 C4H4,1,3-cyclo- 9.354-11
 C4H6,butadiene  1.315-10
 C4H6,1butyne    2.272-11
 C4H6,2butyne    1.129-11
 C4H6,cyclo-     4.823-13
 C4H8,1-butene   1.507-14
 C4H8,cis2-buten 4.766-15
 C4H8,tr2-butene 5.410-15
 C4H8,isobutene  5.307-15
 C4N2            5.1938-6
 *C5             8.5372-8
 C5H6,1,3cyclo-  3.465-12
 C5H8,cyclo-     1.783-16
 C6H2            3.2287-6
 C6H5,phenyl     5.159-12
 C6H5O,phenoxy   1.053-16
 C6H6            5.482-12
 C7H7,benzyl     9.729-15
 C7H8            7.378-16
 C8H8,styrene    2.669-16
 *H              1.0193-2
 HCN             4.9721-2
 HCO             4.8417-6
 HCCN            1.7682-8
 HCCO            2.5381-7
 HNC             8.0962-3
 HNCO            8.1417-7
 HNO             2.495-11
 HO2             6.623-16
 *H2             1.4874-1
 HCHO,formaldehy 3.4959-7
 HCOOH           1.841-11
 H2O             8.6014-6
 H2O2            2.607-16
 *N              1.2059-6
 NCO             4.2895-8
 *NH             1.2087-6
 NH2             1.8336-6
 NH3             6.1668-6
 NH2OH           2.164-14
 *NO             3.0680-8
 *N2             4.6830-1
 NCN             2.9556-8
 N2H2            2.844-10
 N2H4            7.687-14
 N2O             6.222-12
 N3              1.320-11
 N3H             1.368-11
 *O              7.7477-9
 *OH             1.9944-7
 *O2             1.781-13
 C(gr)           4.1999-2

  * THERMODYNAMIC PROPERTIES FITTED TO 20000.K



