
 *******************************************************************************

         NASA-GLENN CHEMICAL EQUILIBRIUM PROGRAM CEA2, MAY 21, 2004
                   BY  BONNIE MCBRIDE AND SANFORD GORDON
      REFS: NASA RP-1311, PART I, 1994 AND NASA RP-1311, PART II, 1996

 *******************************************************************************



 problem    phi,eq.ratio=2.1,2.2,2.3,2.4,2.5,2.6,2.7,2.8,2.9,3,3.1,3.2,3.3,3.4,3.
 5,3.6,
       det   t,k=300,  p,bar=1,
 react
   fuel=C6H6 moles=1 t,k=300
   oxid=O2 moles=7.5 t,k=300
 output
      trace=1e-16 siunits short
 end


                     DETONATION PROPERTIES OF AN IDEAL REACTING GAS
 CASE =                

             REACTANT                       MOLES         ENERGY      TEMP
                                                         KJ/KG-MOL      K
 FUEL        C6H6                         1.0000000     83032.119    300.000
 OXIDANT     O2                           7.5000000        54.358    300.000

 O/F=    1.46305  %FUEL= 40.600090  R,EQ.RATIO= 2.100000  PHI,EQ.RATIO= 2.100000

 UNBURNED GAS

 P1, BAR           1.0000
 T1, K             300.00
 H1, KJ/KG         432.58
 M1, (1/n)         42.086
 GAMMA1            1.2543
 SON VEL1,M/SEC     272.7

 BURNED GAS

 P, BAR            49.542
 T, K             3901.20
 RHO, KG/CU M    3.0834 0
 H, KJ/KG         2658.23
 U, KJ/KG         1051.49
 G, KJ/KG        -43776.4
 S, KJ/(KG)(K)    11.9027

 M, (1/n)          20.188
 (dLV/dLP)t      -1.02823
 (dLV/dLT)p        1.4214
 Cp, KJ/(KG)(K)    4.5292
 GAMMAs            1.1841
 SON VEL,M/SEC     1379.3

 DETONATION PARAMETERS

 P/P1              49.542
 T/T1              13.004
 M/M1              0.4797
 RHO/RHO1          1.8275
 DET MACH NUMBER   9.2450
 DET VEL,M/SEC     2520.7

 MOLE FRACTIONS

 *C              1.7184-7
 *CH             7.6457-8
 CH2             9.4589-8
 CH3             9.1490-8
 CH2OH           3.6656-9
 CH3O            1.4047-9
 CH4             1.8478-8
 CH3OH           1.991-10
 CH3OOH          5.601-15
 *CO             6.0421-1
 *CO2            2.5267-2
 COOH            6.3855-6
 *C2             6.154-11
 C2H             9.757-10
 C2H2,acetylene  4.8732-9
 C2H2,vinylidene 7.386-11
 CH2CO,ketene    4.7910-9
 O(CH)2O         1.048-11
 HO(CO)2OH       3.041-14
 C2H3,vinyl      6.566-12
 CH3CO,acetyl    9.905-12
 C2H4            1.467-12
 C2H4O,ethylen-o 4.960-16
 CH3CHO,ethanal  1.978-13
 CH3COOH         1.331-14
 OHCH2COOH       5.433-16
 C2H5            3.669-15
 C2H6            1.332-16
 C2O             4.2515-8
 *C3             1.214-13
 C3H3,2-propynl  9.559-15
 C3H4,propyne    1.654-16
 C3O2            1.279-10
 *H              8.3498-2
 HCO             9.3120-5
 HCCO            4.6893-9
 HO2             4.1418-6
 *H2             1.9286-1
 HCHO,formaldehy 2.4874-6
 HCOOH           8.4599-7
 H2O             7.0968-2
 H2O2            6.0219-7
 *O              4.1959-3
 *OH             1.8307-2
 *O2             5.8329-4
 O3              7.344-10

  * THERMODYNAMIC PROPERTIES FITTED TO 20000.K


                     DETONATION PROPERTIES OF AN IDEAL REACTING GAS
 CASE =                

             REACTANT                       MOLES         ENERGY      TEMP
                                                         KJ/KG-MOL      K
 FUEL        C6H6                         1.0000000     83032.119    300.000
 OXIDANT     O2                           7.5000000        54.358    300.000

 O/F=    1.39655  %FUEL= 41.726709  R,EQ.RATIO= 2.200000  PHI,EQ.RATIO= 2.200000

 UNBURNED GAS

 P1, BAR           1.0000
 T1, K             300.00
 H1, KJ/KG         444.54
 M1, (1/n)         42.457
 GAMMA1            1.2510
 SON VEL1,M/SEC     271.1

 BURNED GAS

 P, BAR            49.751
 T, K             3826.46
 RHO, KG/CU M    3.1015 0
 H, KJ/KG         2662.51
 U, KJ/KG         1058.42
 G, KJ/KG        -43095.3
 S, KJ/(KG)(K)    11.9583

 M, (1/n)          19.834
 (dLV/dLP)t      -1.02313
 (dLV/dLT)p        1.3474
 Cp, KJ/(KG)(K)    4.1330
 GAMMAs            1.1919
 SON VEL,M/SEC     1382.7

 DETONATION PARAMETERS

 P/P1              49.751
 T/T1              12.755
 M/M1              0.4671
 RHO/RHO1          1.8221
 DET MACH NUMBER   9.2935
 DET VEL,M/SEC     2519.5

 MOLE FRACTIONS

 *C              1.7964-7
 *CH             9.1770-8
 CH2             1.3801-7
 CH3             1.6472-7
 CH2OH           4.3003-9
 CH3O            1.5935-9
 CH4             3.9766-8
 CH3OH           2.769-10
 CH3OOH          4.380-15
 *CO             6.1773-1
 *CO2            1.7869-2
 COOH            4.3283-6
 *C2             9.767-11
 C2H             1.9267-9
 C2H2,acetylene  1.2548-8
 C2H2,vinylidene 1.721-10
 CH2CO,ketene    8.6156-9
 O(CH)2O         1.216-11
 HO(CO)2OH       1.649-14
 C2H3,vinyl      1.742-11
 CH3CO,acetyl    1.844-11
 C2H4            4.795-12
 C2H4O,ethylen-o 1.008-15
 CH3CHO,ethanal  4.332-13
 CH3COOH         1.990-14
 OHCH2COOH       5.154-16
 C2H5            1.230-14
 C2H6            5.355-16
 C2O             5.4639-8
 *C3             3.139-13
 C3H3,1-propynl  1.705-16
 C3H3,2-propynl  3.994-14
 C3H4,allene     4.033-16
 C3H4,propyne    8.033-16
 C3O2            1.959-10
 C4H2,butadiyne  2.969-16
 *H              7.7160-2
 HCO             9.2572-5
 HCCO            6.9074-9
 HO2             1.5137-6
 *H2             2.1853-1
 HCHO,formaldehy 2.8814-6
 HCOOH           6.7011-7
 H2O             5.5079-2
 H2O2            2.5676-7
 *O              2.1058-3
 *OH             1.1223-2
 *O2             2.0112-4
 O3              1.321-10

  * THERMODYNAMIC PROPERTIES FITTED TO 20000.K


                     DETONATION PROPERTIES OF AN IDEAL REACTING GAS
 CASE =                

             REACTANT                       MOLES         ENERGY      TEMP
                                                         KJ/KG-MOL      K
 FUEL        C6H6                         1.0000000     83032.119    300.000
 OXIDANT     O2                           7.5000000        54.358    300.000

 O/F=    1.33583  %FUEL= 42.811388  R,EQ.RATIO= 2.300000  PHI,EQ.RATIO= 2.300000

 UNBURNED GAS

 P1, BAR           1.0000
 T1, K             300.00
 H1, KJ/KG         456.05
 M1, (1/n)         42.821
 GAMMA1            1.2479
 SON VEL1,M/SEC     269.6

 BURNED GAS

 P, BAR            49.766
 T, K             3741.20
 RHO, KG/CU M    3.1186 0
 H, KJ/KG         2658.22
 U, KJ/KG         1062.46
 G, KJ/KG        -42248.4
 S, KJ/(KG)(K)    12.0033

 M, (1/n)          19.493
 (dLV/dLP)t      -1.01890
 (dLV/dLT)p        1.2864
 Cp, KJ/(KG)(K)    3.8029
 GAMMAs            1.2001
 SON VEL,M/SEC     1383.8

 DETONATION PARAMETERS

 P/P1              49.766
 T/T1              12.471
 M/M1              0.4552
 RHO/RHO1          1.8166
 DET MACH NUMBER   9.3241
 DET VEL,M/SEC     2513.9

 MOLE FRACTIONS

 *C              1.9702-7
 *CH             1.1640-7
 CH2             2.1664-7
 CH3             3.2583-7
 CH2OH           4.8777-9
 CH3O            1.7375-9
 CH4             9.5562-8
 CH3OH           3.775-10
 CH3OOH          2.874-15
 *CO             6.2970-1
 *CO2            1.1221-2
 COOH            2.5353-6
 *C2             1.822-10
 C2H             4.5749-9
 C2H2,acetylene  4.0107-8
 C2H2,vinylidene 4.882-10
 CH2CO,ketene    1.7147-8
 O(CH)2O         1.371-11
 HO(CO)2OH       6.867-15
 C2H3,vinyl      5.659-11
 CH3CO,acetyl    3.754-11
 C2H4            1.959-11
 C2H4O,ethylen-o 2.237-15
 CH3CHO,ethanal  1.049-12
 CH3COOH         2.924-14
 OHCH2COOH       4.209-16
 C2H5            5.079-14
 C2H6            2.696-15
 C2O             7.5735-8
 *C3             1.084-12
 C3H3,1-propynl  9.112-16
 C3H3,2-propynl  2.306-13
 C3H4,allene     2.718-15
 C3H4,propyne    5.445-15
 C3H4,cyclo-     1.283-16
 C3O2            3.310-10
 C4H2,butadiyne  2.707-15
 *H              6.9254-2
 HCO             8.9561-5
 HCCO            1.1049-8
 HO2             4.1074-7
 *H2             2.4526-1
 HCHO,formaldehy 3.2817-6
 HCOOH           4.6364-7
 H2O             3.7623-2
 H2O2            8.2120-8
 *O              8.8950-4
 *OH             5.9009-3
 *O2             5.1894-5
 O3              1.503-11

  * THERMODYNAMIC PROPERTIES FITTED TO 20000.K


                     DETONATION PROPERTIES OF AN IDEAL REACTING GAS
 CASE =                

             REACTANT                       MOLES         ENERGY      TEMP
                                                         KJ/KG-MOL      K
 FUEL        C6H6                         1.0000000     83032.119    300.000
 OXIDANT     O2                           7.5000000        54.358    300.000

 O/F=    1.28017  %FUEL= 43.856424  R,EQ.RATIO= 2.400000  PHI,EQ.RATIO= 2.400000

 UNBURNED GAS

 P1, BAR           1.0000
 T1, K             300.00
 H1, KJ/KG         467.14
 M1, (1/n)         43.178
 GAMMA1            1.2449
 SON VEL1,M/SEC     268.2

 BURNED GAS

 P, BAR            49.597
 T, K             3647.17
 RHO, KG/CU M    3.1347 0
 H, KJ/KG         2646.02
 U, KJ/KG         1063.81
 G, KJ/KG        -41251.3
 S, KJ/(KG)(K)    12.0360

 M, (1/n)          19.166
 (dLV/dLP)t      -1.01539
 (dLV/dLT)p        1.2361
 Cp, KJ/(KG)(K)    3.5291
 GAMMAs            1.2084
 SON VEL,M/SEC     1382.7

 DETONATION PARAMETERS

 P/P1              49.597
 T/T1              12.157
 M/M1              0.4439
 RHO/RHO1          1.8109
 DET MACH NUMBER   9.3371
 DET VEL,M/SEC     2503.9

 MOLE FRACTIONS

 *C              2.6879-7
 *CH             1.8491-7
 CH2             4.3313-7
 CH3             8.3786-7
 CH2OH           5.3468-9
 CH3O            1.8207-9
 CH4             3.0336-7
 CH3OH           5.040-10
 CH3OOH          1.336-15
 *CO             6.4027-1
 *CO2            5.2867-3
 COOH            1.0845-6
 *C2             5.616-10
 C2H             1.8335-8
 C2H2,acetylene  2.2314-7
 C2H2,vinylidene 2.3642-9
 CH2CO,ketene    4.4736-8
 O(CH)2O         1.504-11
 HO(CO)2OH       1.567-15
 C2H3,vinyl      3.156-10
 CH3CO,acetyl    9.895-11
 C2H4            1.402-10
 C2H4O,ethylen-o 6.410-15
 CH3CHO,ethanal  3.329-12
 CH3COOH         4.220-14
 OHCH2COOH       2.500-16
 C2H5            3.623-13
 C2H6            2.380-14
 C2H5OH          1.942-16
 C2O             1.3429-7
 *C3             8.317-12
 C3H3,1-propynl  1.105-14
 C3H3,2-propynl  3.057-12
 C3H4,allene     4.241-14
 C3H4,propyne    8.551-14
 C3H4,cyclo-     1.866-15
 C3H5,allyl      7.827-16
 C3O2            7.316-10
 *C4             2.177-16
 C4H2,butadiyne  7.557-14
 *H              6.0364-2
 HCO             8.4352-5
 HCCO            2.2747-8
 HO2             5.9059-8
 *H2             2.7238-1
 HCHO,formaldehy 3.6740-6
 HCOOH           2.3664-7
 H2O             1.9087-2
 H2O2            1.4052-8
 *O              2.6731-4
 *OH             2.2475-3
 *O2             7.1539-6
 O3              6.539-13

  * THERMODYNAMIC PROPERTIES FITTED TO 20000.K


                     DETONATION PROPERTIES OF AN IDEAL REACTING GAS
 CASE =                

             REACTANT                       MOLES         ENERGY      TEMP
                                                         KJ/KG-MOL      K
 FUEL        C6H6                         1.0000000     83032.119    300.000
 OXIDANT     O2                           7.5000000        54.358    300.000

 O/F=    1.22896  %FUEL= 44.863954  R,EQ.RATIO= 2.500000  PHI,EQ.RATIO= 2.500000

 UNBURNED GAS

 P1, BAR           1.0000
 T1, K             300.00
 H1, KJ/KG         477.84
 M1, (1/n)         43.527
 GAMMA1            1.2420
 SON VEL1,M/SEC     266.8

 BURNED GAS

 P, BAR            49.237
 T, K             3545.70
 RHO, KG/CU M    3.1512 0
 H, KJ/KG         2625.33
 U, KJ/KG         1062.84
 G, KJ/KG        -40091.3
 S, KJ/(KG)(K)    12.0474

 M, (1/n)          18.868
 (dLV/dLP)t      -1.01302
 (dLV/dLT)p        1.1946
 Cp, KJ/(KG)(K)    3.3014
 GAMMAs            1.2158
 SON VEL,M/SEC     1378.3

 DETONATION PARAMETERS

 P/P1              49.237
 T/T1              11.819
 M/M1              0.4335
 RHO/RHO1          1.8058
 DET MACH NUMBER   9.3291
 DET VEL,M/SEC     2488.9

 MOLE FRACTIONS

 *C              5.6286-6
 *CH             4.5338-6
 CH2             1.3581-5
 CH3             3.4454-5
 CH2OH           5.6360-9
 CH3O            1.8245-9
 CH4             1.5644-5
 CH3OH           6.552-10
 *CO             6.4918-1
 *CO2            1.5122-4
 COOH            2.7352-8
 *C2             4.3564-7
 C2H             1.8893-5
 C2H2,acetylene  3.2900-4
 C2H2,vinylidene 2.9745-6
 CH2CO,ketene    1.8847-6
 O(CH)2O         1.599-11
 C2H3,vinyl      4.5919-7
 CH3CO,acetyl    4.1542-9
 C2H4            2.6690-7
 C2H4O,ethylen-o 2.915-13
 CH3CHO,ethanal  1.699-10
 CH3COOH         5.949-14
 C2H5            6.764-10
 C2H6            5.581-11
 C2H5OH          1.143-14
 CH3OCH3         3.191-16
 C2O             3.7600-6
 *C3             2.6701-7
 C3H3,1-propynl  5.703-10
 C3H3,2-propynl  1.7471-7
 C3H4,allene     2.8749-9
 C3H4,propyne    5.8383-9
 C3H4,cyclo-     1.167-10
 C3H5,allyl      5.623-11
 C3H6,propylene  6.414-12
 C3H6,cyclo-     6.303-14
 C3H6O,acetone   8.988-16
 C3H6O,propanal  1.637-15
 C3H7,n-propyl   6.826-15
 C3H7,i-propyl   3.949-15
 C3H8            5.358-16
 C3O2            2.6114-8
 *C4             2.308-10
 C4H2,butadiyne  1.5013-7
 C4H4,1,3-cyclo- 2.629-13
 C4H6,butadiene  3.667-13
 C4H6,1butyne    5.951-14
 C4H6,2butyne    2.561-14
 C4H6,cyclo-     1.260-15
 *C5             9.133-11
 C5H6,1,3cyclo-  5.220-16
 C6H2            7.384-11
 C6H5,phenyl     1.008-16
 *H              5.1004-2
 HCO             7.7179-5
 HCCO            7.4314-7
 HO2             2.939-11
 *H2             2.9851-1
 HCHO,formaldehy 4.0305-6
 HCOOH           7.1874-9
 H2O             5.8032-4
 H2O2            8.392-12
 *O              4.6195-6
 *OH             5.0069-5
 *O2             3.4459-9

  * THERMODYNAMIC PROPERTIES FITTED TO 20000.K


                     DETONATION PROPERTIES OF AN IDEAL REACTING GAS
 CASE =                

             REACTANT                       MOLES         ENERGY      TEMP
                                                         KJ/KG-MOL      K
 FUEL        C6H6                         1.0000000     83032.119    300.000
 OXIDANT     O2                           7.5000000        54.358    300.000

 O/F=    1.18169  %FUEL= 45.835959  R,EQ.RATIO= 2.600000  PHI,EQ.RATIO= 2.600000

 UNBURNED GAS

 P1, BAR           1.0000
 T1, K             300.00
 H1, KJ/KG         488.15
 M1, (1/n)         43.869
 GAMMA1            1.2393
 SON VEL1,M/SEC     265.4

 BURNED GAS

 P, BAR            47.443
 T, K             3424.85
 RHO, KG/CU M    3.1740 0
 H, KJ/KG         2540.13
 U, KJ/KG         1045.37
 G, KJ/KG        -38578.4
 S, KJ/(KG)(K)    12.0060

 M, (1/n)          19.050
 (dLV/dLP)t      -1.01027
 (dLV/dLT)p        1.1621
 Cp, KJ/(KG)(K)    3.1312
 GAMMAs            1.2165
 SON VEL,M/SEC     1348.5

 DETONATION PARAMETERS

 P/P1              47.443
 T/T1              11.416
 M/M1              0.4343
 RHO/RHO1          1.8047
 DET MACH NUMBER   9.1677
 DET VEL,M/SEC     2433.5

 MOLE FRACTIONS

 *C              1.6818-5
 *CH             1.5502-5
 CH2             5.9388-5
 CH3             1.9914-4
 CH2OH           4.8338-9
 CH3O            1.4691-9
 CH4             1.1318-4
 CH3OH           6.874-10
 *CO             6.4468-1
 *CO2            2.5187-5
 COOH            3.6380-9
 *C2             7.7969-6
 C2H             4.5413-4
 C2H2,acetylene  1.1678-2
 C2H2,vinylidene 8.6245-5
 CH2CO,ketene    1.1392-5
 O(CH)2O         1.408-11
 C2H3,vinyl      1.5007-5
 CH3CO,acetyl    2.3431-8
 C2H4            1.1497-5
 C2H4O,ethylen-o 1.705-12
 CH3CHO,ethanal  1.1503-9
 CH3COOH         6.574-14
 C2H5            2.6630-8
 C2H6            2.7487-9
 C2H5OH          8.143-14
 CH3OCH3         2.143-15
 C2O             1.5425-5
 *C3             3.2934-5
 C3H3,1-propynl  1.0573-7
 C3H3,2-propynl  3.6856-5
 C3H4,allene     7.0572-7
 C3H4,propyne    1.4464-6
 C3H4,cyclo-     2.5857-8
 C3H5,allyl      1.3930-8
 C3H6,propylene  1.8825-9
 C3H6,cyclo-     1.760-11
 C3H6O,propylox  1.809-16
 C3H6O,acetone   4.251-14
 C3H6O,propanal  7.386-14
 C3H7,n-propyl   1.796-12
 C3H7,i-propyl   1.056-12
 C3H8            1.768-13
 C3O2            1.3847-7
 *C4             1.4768-7
 C4H2,butadiyne  1.8691-4
 C4H4,1,3-cyclo- 3.458-10
 C4H6,butadiene  5.910-10
 C4H6,1butyne    9.932-11
 C4H6,2butyne    4.367-11
 C4H6,cyclo-     2.098-12
 C4H8,1-butene   1.103-13
 C4H8,cis2-buten 3.242-14
 C4H8,tr2-butene 3.700-14
 C4H8,isobutene  3.506-14
 C4H8,cyclo-     1.277-16
 C4H9,n-butyl    1.821-16
 C4H9,s-butyl    1.114-16
 *C5             3.8953-7
 C5H6,1,3cyclo-  6.016-12
 C5H8,cyclo-     7.721-16
 C6H2            3.2113-6
 C6H5,phenyl     6.295-12
 C6H5O,phenoxy   6.090-16
 C6H6            3.083-12
 C6H5OH,phenol   2.478-16
 C7H7,benzyl     1.232-14
 C7H8            6.969-16
 C8H8,styrene    1.915-16
 *H              3.9681-2
 HCO             6.3034-5
 HCCO            3.4719-6
 HO2             4.384-13
 *H2             3.0250-1
 HCHO,formaldehy 3.8835-6
 HCOOH           1.1339-9
 H2O             9.6497-5
 H2O2            1.478-13
 *O              4.2768-7
 *OH             5.9904-6
 *O2             5.266-11

  * THERMODYNAMIC PROPERTIES FITTED TO 20000.K


                     DETONATION PROPERTIES OF AN IDEAL REACTING GAS
 CASE =                

             REACTANT                       MOLES         ENERGY      TEMP
                                                         KJ/KG-MOL      K
 FUEL        C6H6                         1.0000000     83032.119    300.000
 OXIDANT     O2                           7.5000000        54.358    300.000

 O/F=    1.13793  %FUEL= 46.774286  R,EQ.RATIO= 2.700000  PHI,EQ.RATIO= 2.700000

 UNBURNED GAS

 P1, BAR           1.0000
 T1, K             300.00
 H1, KJ/KG         498.11
 M1, (1/n)         44.205
 GAMMA1            1.2366
 SON VEL1,M/SEC     264.2

 BURNED GAS

 P, BAR            45.643
 T, K             3303.64
 RHO, KG/CU M    3.1951 0
 H, KJ/KG         2456.26
 U, KJ/KG         1027.73
 G, KJ/KG        -37040.8
 S, KJ/(KG)(K)    11.9556

 M, (1/n)          19.228
 MW, MOL WT        19.228
 (dLV/dLP)t      -1.00814
 (dLV/dLT)p        1.1313
 Cp, KJ/(KG)(K)    2.9554
 GAMMAs            1.2182
 SON VEL,M/SEC     1319.2

 DETONATION PARAMETERS

 P/P1              45.643
 T/T1              11.012
 M/M1              0.4350
 RHO/RHO1          1.8029
 DET MACH NUMBER   9.0037
 DET VEL,M/SEC     2378.4

 MOLE FRACTIONS

 *C              1.1201-5
 *CH             1.1913-5
 CH2             5.9306-5
 CH3             2.6805-4
 CH2OH           4.0692-9
 CH3O            1.1570-9
 CH4             1.9420-4
 CH3OH           7.180-10
 *CO             6.3948-1
 *CO2            1.7850-5
 COOH            2.0190-9
 *C2             7.3181-6
 C2H             5.8448-4
 C2H2,acetylene  2.2831-2
 C2H2,vinylidene 1.3546-4
 CH2CO,ketene    1.6153-5
 O(CH)2O         1.224-11
 C2H3,vinyl      2.6771-5
 CH3CO,acetyl    3.0797-8
 C2H4            2.7571-5
 C2H4O,ethylen-o 2.328-12
 CH3CHO,ethanal  1.8360-9
 CH3COOH         7.279-14
 C2H5            5.7848-8
 C2H6            7.5872-9
 C2H5OH          1.368-13
 CH3OCH3         3.378-15
 C2O             1.4474-5
 *C3             5.0647-5
 C3H3,1-propynl  2.5089-7
 C3H3,2-propynl  1.0050-4
 C3H4,allene     2.2621-6
 C3H4,propyne    4.6823-6
 C3H4,cyclo-     7.4246-8
 C3H5,allyl      4.5029-8
 C3H6,propylene  7.2879-9
 C3H6,cyclo-     6.458-11
 C3H6O,propylox  4.021-16
 C3H6O,acetone   1.125-13
 C3H6O,propanal  1.859-13
 C3H7,n-propyl   6.169-12
 C3H7,i-propyl   3.690-12
 C3H8            7.737-13
 C3O2            1.7157-7
 *C4             2.7469-7
 C4H2,butadiyne  7.0888-4
 C4H4,1,3-cyclo- 1.3865-9
 C4H6,butadiene  2.9733-9
 C4H6,1butyne    5.122-10
 C4H6,2butyne    2.307-10
 C4H6,cyclo-     1.080-11
 C4H8,1-butene   6.776-13
 C4H8,cis2-buten 2.023-13
 C4H8,tr2-butene 2.306-13
 C4H8,isobutene  2.202-13
 C4H8,cyclo-     7.475-16
 C4H9,n-butyl    1.007-15
 C4H9,i-butyl    4.526-16
 C4H9,s-butyl    6.183-16
 *C5             1.1454-6
 C5H6,1,3cyclo-  5.109-11
 C5H8,cyclo-     7.181-15
 C6H2            2.3539-5
 C6H5,phenyl     6.780-11
 C6H5O,phenoxy   4.718-15
 C6H6            4.513-11
 C6H5OH,phenol   2.279-15
 C7H7,benzyl     2.374-13
 C7H8            1.650-14
 C8H8,styrene    6.582-15
 C10H8,naphthale 1.994-16
 *H              3.0189-2
 HCO             5.0558-5
 HCCO            3.7380-6
 HO2             1.125-13
 *H2             3.0511-1
 HCHO,formaldehy 3.7155-6
 HCOOH           7.549-10
 H2O             6.7864-5
 H2O2            4.527-14
 *O              1.6087-7
 *OH             2.9619-6
 *O2             1.390-11

  * THERMODYNAMIC PROPERTIES FITTED TO 20000.K


                     DETONATION PROPERTIES OF AN IDEAL REACTING GAS
 CASE =                

             REACTANT                       MOLES         ENERGY      TEMP
                                                         KJ/KG-MOL      K
 FUEL        C6H6                         1.0000000     83032.119    300.000
 OXIDANT     O2                           7.5000000        54.358    300.000

 O/F=    1.09729  %FUEL= 47.680657  R,EQ.RATIO= 2.800000  PHI,EQ.RATIO= 2.800000

 UNBURNED GAS

 P1, BAR           1.0000
 T1, K             300.00
 H1, KJ/KG         507.73
 M1, (1/n)         44.534
 GAMMA1            1.2341
 SON VEL1,M/SEC     262.9

 BURNED GAS

 P, BAR            45.407
 T, K             3201.46
 RHO, KG/CU M    3.3063 0
 H, KJ/KG         2422.87
 U, KJ/KG         1049.55
 G, KJ/KG        -35679.3
 S, KJ/(KG)(K)    11.9015

 M, (1/n)          19.383
 MW, MOL WT        19.373
 (dLV/dLP)t      -1.00659
 (dLV/dLT)p        1.1023
 Cp, KJ/(KG)(K)    3.8457
 GAMMAs            1.1480
 SON VEL,M/SEC     1255.6

 DETONATION PARAMETERS

 P/P1              45.407
 T/T1              10.672
 M/M1              0.4352
 RHO/RHO1          1.8519
 DET MACH NUMBER   8.8444
 DET VEL,M/SEC     2325.3

 MOLE FRACTIONS

 *C              6.7104-6
 *CH             8.2310-6
 CH2             5.2571-5
 CH3             3.1532-4
 CH2OH           3.6195-9
 CH3O            9.701-10
 CH4             2.8892-4
 CH3OH           7.870-10
 *CO             6.3334-1
 *CO2            1.5088-5
 COOH            1.3873-9
 *C2             5.3209-6
 C2H             5.7275-4
 C2H2,acetylene  3.3076-2
 C2H2,vinylidene 1.6094-4
 CH2CO,ketene    2.0222-5
 O(CH)2O         1.139-11
 C2H3,vinyl      3.6178-5
 CH3CO,acetyl    3.6516-8
 C2H4            4.9337-5
 C2H4O,ethylen-o 2.896-12
 CH3CHO,ethanal  2.6289-9
 CH3COOH         8.659-14
 C2H5            9.5971-8
 C2H6            1.5842-8
 C2H5OH          2.109-13
 CH3OCH3         4.917-15
 C2O             1.2157-5
 *C3             5.1177-5
 C3H3,1-propynl  3.9076-7
 C3H3,2-propynl  1.7746-4
 C3H4,allene     4.6863-6
 C3H4,propyne    9.7863-6
 C3H4,cyclo-     1.3928-7
 C3H5,allyl      9.5317-8
 C3H6,propylene  1.8398-8
 C3H6,cyclo-     1.554-10
 C3H6O,propylox  7.111-16
 C3H6O,acetone   2.328-13
 C3H6O,propanal  3.675-13
 C3H7,n-propyl   1.417-11
 C3H7,i-propyl   8.608-12
 C3H8            2.242-12
 C3O2            1.9057-7
 *C4             2.9400-7
 C4H2,butadiyne  1.4818-3
 C4H4,1,3-cyclo- 3.1325-9
 C4H6,butadiene  8.5501-9
 C4H6,1butyne    1.4913-9
 C4H6,2butyne    6.872-10
 C4H6,cyclo-     3.145-11
 C4H8,1-butene   2.376-12
 C4H8,cis2-buten 7.196-13
 C4H8,tr2-butene 8.193-13
 C4H8,isobutene  7.873-13
 C4H8,cyclo-     2.511-15
 C4H9,n-butyl    3.253-15
 C4H9,i-butyl    1.476-15
 C4H9,s-butyl    2.005-15
 C4H9,t-butyl    2.337-16
 C4H10,n-butane  3.398-16
 *C5             1.6494-6
 C5H6,1,3cyclo-  2.081-10
 C5H8,cyclo-     3.265-14
 C5H10,1-pentene 2.304-16
 C6H2            7.0786-5
 C6H5,phenyl     3.007-10
 C6H5O,phenoxy   1.796-14
 C6H6            2.676-10
 C6H5OH,phenol   1.027-14
 C7H7,benzyl     1.631-12
 C7H8            1.383-13
 C8H8,styrene    6.846-14
 C10H8,naphthale 3.740-15
 *H              2.3205-2
 HCO             4.1907-5
 HCCO            3.6010-6
 HO2             4.332-14
 *H2             3.0643-1
 HCHO,formaldehy 3.6608-6
 HCOOH           6.197-10
 H2O             5.6865-5
 H2O2            2.070-14
 *O              7.4652-8
 *OH             1.7820-6
 *O2             5.412-12
 C(gr)           4.9469-4

  * THERMODYNAMIC PROPERTIES FITTED TO 20000.K


                     DETONATION PROPERTIES OF AN IDEAL REACTING GAS
 CASE =                

             REACTANT                       MOLES         ENERGY      TEMP
                                                         KJ/KG-MOL      K
 FUEL        C6H6                         1.0000000     83032.119    300.000
 OXIDANT     O2                           7.5000000        54.358    300.000

 O/F=    1.05945  %FUEL= 48.556675  R,EQ.RATIO= 2.900000  PHI,EQ.RATIO= 2.900000

 UNBURNED GAS

 P1, BAR           1.0000
 T1, K             300.00
 H1, KJ/KG         517.03
 M1, (1/n)         44.857
 GAMMA1            1.2317
 SON VEL1,M/SEC     261.7

 BURNED GAS

 P, BAR            44.877
 T, K             3160.32
 RHO, KG/CU M    3.3277 0
 H, KJ/KG         2396.20
 U, KJ/KG         1047.62
 G, KJ/KG        -35057.2
 S, KJ/(KG)(K)    11.8511

 M, (1/n)          19.485
 MW, MOL WT        18.909
 (dLV/dLP)t      -1.00609
 (dLV/dLT)p        1.0944
 Cp, KJ/(KG)(K)    3.7497
 GAMMAs            1.1497
 SON VEL,M/SEC     1245.2

 DETONATION PARAMETERS

 P/P1              44.877
 T/T1              10.534
 M/M1              0.4344
 RHO/RHO1          1.8504
 DET MACH NUMBER   8.8042
 DET VEL,M/SEC     2304.1

 MOLE FRACTIONS

 *C              4.6561-6
 *CH             6.1454-6
 CH2             4.4165-5
 CH3             3.0240-4
 CH2OH           3.4545-9
 CH3O            9.034-10
 CH4             3.1016-4
 CH3OH           8.313-10
 *CO             6.0781-1
 *CO2            1.5167-5
 COOH            1.2951-9
 *C2             3.5166-6
 C2H             4.3495-4
 C2H2,acetylene  3.0009-2
 C2H2,vinylidene 1.3429-4
 CH2CO,ketene    1.9315-5
 O(CH)2O         1.075-11
 C2H3,vinyl      3.2297-5
 CH3CO,acetyl    3.4547-8
 C2H4            5.0238-5
 C2H4O,ethylen-o 2.833-12
 CH3CHO,ethanal  2.7285-9
 CH3COOH         9.307-14
 C2H5            9.5923-8
 C2H6            1.7679-8
 C2H5OH          2.318-13
 CH3OCH3         5.277-15
 C2O             9.5596-6
 *C3             3.4103-5
 C3H3,1-propynl  3.2517-7
 C3H3,2-propynl  1.5569-4
 C3H4,allene     4.4566-6
 C3H4,propyne    9.3413-6
 C3H4,cyclo-     1.2704-7
 C3H5,allyl      9.2704-8
 C3H6,propylene  1.9527-8
 C3H6,cyclo-     1.617-10
 C3H6O,propylox  7.276-16
 C3H6O,acetone   2.545-13
 C3H6O,propanal  3.940-13
 C3H7,n-propyl   1.465-11
 C3H7,i-propyl   8.955-12
 C3H8            2.590-12
 C3O2            1.6569-7
 *C4             1.7631-7
 C4H2,butadiyne  1.2094-3
 C4H4,1,3-cyclo- 2.7130-9
 C4H6,butadiene  8.4373-9
 C4H6,1butyne    1.4756-9
 C4H6,2butyne    6.867-10
 C4H6,cyclo-     3.113-11
 C4H8,1-butene   2.612-12
 C4H8,cis2-buten 7.957-13
 C4H8,tr2-butene 9.054-13
 C4H8,isobutene  8.726-13
 C4H8,cyclo-     2.711-15
 C4H9,n-butyl    3.500-15
 C4H9,i-butyl    1.595-15
 C4H9,s-butyl    2.161-15
 C4H9,t-butyl    2.552-16
 C4H10,n-butane  4.061-16
 C4H10,isobutane 1.084-16
 *C5             9.8385-7
 C5H6,1,3cyclo-  2.083-10
 C5H8,cyclo-     3.516-14
 C5H10,1-pentene 2.628-16
 C6H2            5.1915-5
 C6H5,phenyl     2.703-10
 C6H5O,phenoxy   1.695-14
 C6H6            2.756-10
 C6H5OH,phenol   1.054-14
 C7H7,benzyl     1.590-12
 C7H8            1.485-13
 C8H8,styrene    7.061-14
 C10H8,naphthale 3.817-15
 *H              2.0639-2
 HCO             3.7812-5
 HCCO            3.0395-6
 HO2             3.609-14
 *H2             3.0905-1
 HCHO,formaldehy 3.6000-6
 HCOOH           6.319-10
 H2O             5.9493-5
 H2O2            1.880-14
 *O              5.9316-8
 *OH             1.6003-6
 *O2             4.472-12
 C(gr)           2.9556-2

  * THERMODYNAMIC PROPERTIES FITTED TO 20000.K


                     DETONATION PROPERTIES OF AN IDEAL REACTING GAS
 CASE =                

             REACTANT                       MOLES         ENERGY      TEMP
                                                         KJ/KG-MOL      K
 FUEL        C6H6                         1.0000000     83032.119    300.000
 OXIDANT     O2                           7.5000000        54.358    300.000

 O/F=    1.02413  %FUEL= 49.403841  R,EQ.RATIO= 3.000000  PHI,EQ.RATIO= 3.000000

 UNBURNED GAS

 P1, BAR           1.0000
 T1, K             300.00
 H1, KJ/KG         526.02
 M1, (1/n)         45.174
 GAMMA1            1.2293
 SON VEL1,M/SEC     260.5

 BURNED GAS

 P, BAR            44.360
 T, K             3120.12
 RHO, KG/CU M    3.3485 0
 H, KJ/KG         2370.54
 U, KJ/KG         1045.79
 G, KJ/KG        -34452.5
 S, KJ/(KG)(K)    11.8018

 M, (1/n)          19.583
 MW, MOL WT        18.483
 (dLV/dLP)t      -1.00563
 (dLV/dLT)p        1.0872
 Cp, KJ/(KG)(K)    3.6598
 GAMMAs            1.1514
 SON VEL,M/SEC     1235.0

 DETONATION PARAMETERS

 P/P1              44.360
 T/T1              10.400
 M/M1              0.4335
 RHO/RHO1          1.8489
 DET MACH NUMBER   8.7646
 DET VEL,M/SEC     2283.5

 MOLE FRACTIONS

 *C              3.2323-6
 *CH             4.5859-6
 CH2             3.7047-5
 CH3             2.8934-4
 CH2OH           3.2906-9
 CH3O            8.397-10
 CH4             3.3198-4
 CH3OH           8.756-10
 *CO             5.8434-1
 *CO2            1.5284-5
 COOH            1.2102-9
 *C2             2.3247-6
 C2H             3.3012-4
 C2H2,acetylene  2.7193-2
 C2H2,vinylidene 1.1187-4
 CH2CO,ketene    1.8435-5
 O(CH)2O         1.015-11
 C2H3,vinyl      2.8758-5
 CH3CO,acetyl    3.2624-8
 C2H4            5.0983-5
 C2H4O,ethylen-o 2.764-12
 CH3CHO,ethanal  2.8238-9
 CH3COOH         9.981-14
 C2H5            9.5426-8
 C2H6            1.9619-8
 C2H5OH          2.536-13
 CH3OCH3         5.635-15
 C2O             7.5265-6
 *C3             2.2727-5
 C3H3,1-propynl  2.6983-7
 C3H3,2-propynl  1.3622-4
 C3H4,allene     4.2227-6
 C3H4,propyne    8.8843-6
 C3H4,cyclo-     1.1544-7
 C3H5,allyl      8.9738-8
 C3H6,propylene  2.0606-8
 C3H6,cyclo-     1.673-10
 C3H6O,propylox  7.405-16
 C3H6O,acetone   2.767-13
 C3H6O,propanal  4.203-13
 C3H7,n-propyl   1.503-11
 C3H7,i-propyl   9.251-12
 C3H8            2.968-12
 C3O2            1.4435-7
 *C4             1.0572-7
 C4H2,butadiyne  9.8546-4
 C4H4,1,3-cyclo- 2.3405-9
 C4H6,butadiene  8.2870-9
 C4H6,1butyne    1.4512-9
 C4H6,2butyne    6.821-10
 C4H6,cyclo-     3.064-11
 C4H8,1-butene   2.847-12
 C4H8,cis2-buten 8.726-13
 C4H8,tr2-butene 9.926-13
 C4H8,isobutene  9.592-13
 C4H8,cyclo-     2.904-15
 C4H9,n-butyl    3.732-15
 C4H9,i-butyl    1.707-15
 C4H9,s-butyl    2.307-15
 C4H9,t-butyl    2.761-16
 C4H10,n-butane  4.802-16
 C4H10,isobutane 1.287-16
 *C5             5.8670-7
 C5H6,1,3cyclo-  2.073-10
 C5H8,cyclo-     3.756-14
 C5H10,1-pentene 2.966-16
 C6H2            3.7997-5
 C6H5,phenyl     2.417-10
 C6H5O,phenoxy   1.593-14
 C6H6            2.820-10
 C6H5OH,phenol   1.077-14
 C7H7,benzyl     1.538-12
 C7H8            1.582-13
 C8H8,styrene    7.218-14
 C10H8,naphthale 3.864-15
 *H              1.8358-2
 HCO             3.4130-5
 HCCO            2.5660-6
 HO2             3.009-14
 *H2             3.1141-1
 HCHO,formaldehy 3.5383-6
 HCOOH           6.444-10
 H2O             6.2222-5
 H2O2            1.706-14
 *O              4.7201-8
 *OH             1.4379-6
 *O2             3.702-12
 C(gr)           5.6160-2

  * THERMODYNAMIC PROPERTIES FITTED TO 20000.K


                     DETONATION PROPERTIES OF AN IDEAL REACTING GAS
 CASE =                

             REACTANT                       MOLES         ENERGY      TEMP
                                                         KJ/KG-MOL      K
 FUEL        C6H6                         1.0000000     83032.119    300.000
 OXIDANT     O2                           7.5000000        54.358    300.000

 O/F=    0.99110  %FUEL= 50.223557  R,EQ.RATIO= 3.100000  PHI,EQ.RATIO= 3.100000

 UNBURNED GAS

 P1, BAR           1.0000
 T1, K             300.00
 H1, KJ/KG         534.72
 M1, (1/n)         45.485
 GAMMA1            1.2271
 SON VEL1,M/SEC     259.4

 BURNED GAS

 P, BAR            43.855
 T, K             3080.82
 RHO, KG/CU M    3.3689 0
 H, KJ/KG         2345.80
 U, KJ/KG         1044.06
 G, KJ/KG        -33864.5
 S, KJ/(KG)(K)    11.7534

 M, (1/n)          19.678
 MW, MOL WT        18.092
 (dLV/dLP)t      -1.00522
 (dLV/dLT)p        1.0806
 Cp, KJ/(KG)(K)    3.5754
 GAMMAs            1.1531
 SON VEL,M/SEC     1225.2

 DETONATION PARAMETERS

 P/P1              43.855
 T/T1              10.269
 M/M1              0.4326
 RHO/RHO1          1.8475
 DET MACH NUMBER   8.7255
 DET VEL,M/SEC     2263.5

 MOLE FRACTIONS

 *C              2.2447-6
 *CH             3.4203-6
 CH2             3.1031-5
 CH3             2.7624-4
 CH2OH           3.1290-9
 CH3O            7.792-10
 CH4             3.5440-4
 CH3OH           9.200-10
 *CO             5.6271-1
 *CO2            1.5438-5
 COOH            1.1321-9
 *C2             1.5369-6
 C2H             2.5040-4
 C2H2,acetylene  2.4612-2
 C2H2,vinylidene 9.3053-5
 CH2CO,ketene    1.7585-5
 O(CH)2O         9.573-12
 C2H3,vinyl      2.5545-5
 CH3CO,acetyl    3.0756-8
 C2H4            5.1578-5
 C2H4O,ethylen-o 2.689-12
 CH3CHO,ethanal  2.9150-9
 CH3COOH         1.068-13
 C2H5            9.4527-8
 C2H6            2.1663-8
 C2H5OH          2.761-13
 CH3OCH3         5.989-15
 C2O             5.9325-6
 *C3             1.5145-5
 C3H3,1-propynl  2.2330-7
 C3H3,2-propynl  1.1889-4
 C3H4,allene     3.9879-6
 C3H4,propyne    8.4216-6
 C3H4,cyclo-     1.0454-7
 C3H5,allyl      8.6492-8
 C3H6,propylene  2.1633-8
 C3H6,cyclo-     1.722-10
 C3H6O,propylox  7.501-16
 C3H6O,acetone   2.994-13
 C3H6O,propanal  4.462-13
 C3H7,n-propyl   1.533-11
 C3H7,i-propyl   9.496-12
 C3H8            3.378-12
 C3O2            1.2599-7
 *C4             6.3385-8
 C4H2,butadiyne  8.0167-4
 C4H4,1,3-cyclo- 2.0118-9
 C4H6,butadiene  8.1051-9
 C4H6,1butyne    1.4193-9
 C4H6,2butyne    6.740-10
 C4H6,cyclo-     2.998-11
 C4H8,1-butene   3.082-12
 C4H8,cis2-buten 9.500-13
 C4H8,tr2-butene 1.080-12
 C4H8,isobutene  1.047-12
 C4H8,cyclo-     3.088-15
 C4H9,n-butyl    3.945-15
 C4H9,i-butyl    1.811-15
 C4H9,s-butyl    2.442-15
 C4H9,t-butyl    2.962-16
 C4H10,n-butane  5.627-16
 C4H10,isobutane 1.514-16
 *C5             3.4972-7
 C5H6,1,3cyclo-  2.052-10
 C5H8,cyclo-     3.983-14
 C5H10,1-pentene 3.315-16
 C6H2            2.7754-5
 C6H5,phenyl     2.152-10
 C6H5O,phenoxy   1.492-14
 C6H6            2.871-10
 C6H5OH,phenol   1.094-14
 C7H7,benzyl     1.479-12
 C7H8            1.673-13
 C8H8,styrene    7.317-14
 C10H8,naphthale 3.881-15
 *H              1.6330-2
 HCO             3.0818-5
 HCCO            2.1665-6
 HO2             2.512-14
 *H2             3.1355-1
 HCHO,formaldehy 3.4760-6
 HCOOH           6.572-10
 H2O             6.5062-5
 H2O2            1.548-14
 *O              3.7610-8
 *OH             1.2926-6
 *O2             3.071-12
 C(gr)           8.0593-2

  * THERMODYNAMIC PROPERTIES FITTED TO 20000.K


                     DETONATION PROPERTIES OF AN IDEAL REACTING GAS
 CASE =                

             REACTANT                       MOLES         ENERGY      TEMP
                                                         KJ/KG-MOL      K
 FUEL        C6H6                         1.0000000     83032.119    300.000
 OXIDANT     O2                           7.5000000        54.358    300.000

 O/F=    0.96013  %FUEL= 51.017135  R,EQ.RATIO= 3.200000  PHI,EQ.RATIO= 3.200000

 UNBURNED GAS

 P1, BAR           1.0000
 T1, K             300.00
 H1, KJ/KG         543.14
 M1, (1/n)         45.790
 GAMMA1            1.2249
 SON VEL1,M/SEC     258.3

 BURNED GAS

 P, BAR            43.361
 T, K             3042.39
 RHO, KG/CU M    3.3888 0
 H, KJ/KG         2321.94
 U, KJ/KG         1042.41
 G, KJ/KG        -33292.5
 S, KJ/(KG)(K)    11.7061

 M, (1/n)          19.770
 MW, MOL WT        17.731
 (dLV/dLP)t      -1.00485
 (dLV/dLT)p        1.0744
 Cp, KJ/(KG)(K)    3.4961
 GAMMAs            1.1548
 SON VEL,M/SEC     1215.5

 DETONATION PARAMETERS

 P/P1              43.361
 T/T1              10.141
 M/M1              0.4318
 RHO/RHO1          1.8460
 DET MACH NUMBER   8.6868
 DET VEL,M/SEC     2244.0

 MOLE FRACTIONS

 *C              1.5593-6
 *CH             2.5494-6
 CH2             2.5957-5
 CH3             2.6320-4
 CH2OH           2.9706-9
 CH3O            7.220-10
 CH4             3.7744-4
 CH3OH           9.645-10
 *CO             5.4270-1
 *CO2            1.5628-5
 COOH            1.0600-9
 *C2             1.0160-6
 C2H             1.8982-4
 C2H2,acetylene  2.2251-2
 C2H2,vinylidene 7.7285-5
 CH2CO,ketene    1.6765-5
 O(CH)2O         9.031-12
 C2H3,vinyl      2.2641-5
 CH3CO,acetyl    2.8951-8
 C2H4            5.2033-5
 C2H4O,ethylen-o 2.610-12
 CH3CHO,ethanal  3.0022-9
 CH3COOH         1.142-13
 C2H5            9.3272-8
 C2H6            2.3812-8
 C2H5OH          2.995-13
 CH3OCH3         6.338-15
 C2O             4.6806-6
 *C3             1.0090-5
 C3H3,1-propynl  1.8434-7
 C3H3,2-propynl  1.0352-4
 C3H4,allene     3.7547-6
 C3H4,propyne    7.9587-6
 C3H4,cyclo-     9.4366-8
 C3H5,allyl      8.3035-8
 C3H6,propylene  2.2603-8
 C3H6,cyclo-     1.764-10
 C3H6O,propylox  7.565-16
 C3H6O,acetone   3.227-13
 C3H6O,propanal  4.716-13
 C3H7,n-propyl   1.554-11
 C3H7,i-propyl   9.691-12
 C3H8            3.819-12
 C3O2            1.1015-7
 *C4             3.7988-8
 C4H2,butadiyne  6.5116-4
 C4H4,1,3-cyclo- 1.7235-9
 C4H6,butadiene  7.8971-9
 C4H6,1butyne    1.3812-9
 C4H6,2butyne    6.626-10
 C4H6,cyclo-     2.920-11
 C4H8,1-butene   3.313-12
 C4H8,cis2-buten 1.027-12
 C4H8,tr2-butene 1.168-12
 C4H8,isobutene  1.135-12
 C4H8,cyclo-     3.262-15
 C4H9,n-butyl    4.137-15
 C4H9,i-butyl    1.907-15
 C4H9,s-butyl    2.566-15
 C4H9,t-butyl    3.153-16
 C4H10,n-butane  6.539-16
 C4H10,isobutane 1.767-16
 *C5             2.0835-7
 C5H6,1,3cyclo-  2.021-10
 C5H8,cyclo-     4.196-14
 C5H10,1-pentene 3.675-16
 C6H2            2.0233-5
 C6H5,phenyl     1.907-10
 C6H5O,phenoxy   1.391-14
 C6H6            2.909-10
 C6H5OH,phenol   1.107-14
 C7H7,benzyl     1.413-12
 C7H8            1.756-13
 C8H8,styrene    7.362-14
 C10H8,naphthale 3.871-15
 *H              1.4526-2
 HCO             2.7836-5
 HCCO            1.8295-6
 HO2             2.098-14
 *H2             3.1547-1
 HCHO,formaldehy 3.4134-6
 HCOOH           6.704-10
 H2O             6.8022-5
 H2O2            1.405-14
 *O              3.0003-8
 *OH             1.1624-6
 *O2             2.552-12
 C(gr)           1.0310-1

  * THERMODYNAMIC PROPERTIES FITTED TO 20000.K


                     DETONATION PROPERTIES OF AN IDEAL REACTING GAS
 CASE =                

             REACTANT                       MOLES         ENERGY      TEMP
                                                         KJ/KG-MOL      K
 FUEL        C6H6                         1.0000000     83032.119    300.000
 OXIDANT     O2                           7.5000000        54.358    300.000

 O/F=    0.93103  %FUEL= 51.785807  R,EQ.RATIO= 3.300000  PHI,EQ.RATIO= 3.300000

 UNBURNED GAS

 P1, BAR           1.0000
 T1, K             300.00
 H1, KJ/KG         551.30
 M1, (1/n)         46.089
 GAMMA1            1.2229
 SON VEL1,M/SEC     257.3

 BURNED GAS

 P, BAR            42.879
 T, K             3004.81
 RHO, KG/CU M    3.4083 0
 H, KJ/KG         2298.92
 U, KJ/KG         1040.85
 G, KJ/KG        -32736.0
 S, KJ/(KG)(K)    11.6596

 M, (1/n)          19.859
 MW, MOL WT        17.398
 (dLV/dLP)t      -1.00451
 (dLV/dLT)p        1.0687
 Cp, KJ/(KG)(K)    3.4214
 GAMMAs            1.1564
 SON VEL,M/SEC     1206.2

 DETONATION PARAMETERS

 P/P1              42.879
 T/T1              10.016
 M/M1              0.4309
 RHO/RHO1          1.8446
 DET MACH NUMBER   8.6486
 DET VEL,M/SEC     2224.9

 MOLE FRACTIONS

 *C              1.0832-6
 *CH             1.8991-6
 CH2             2.1684-5
 CH3             2.5033-4
 CH2OH           2.8162-9
 CH3O            6.681-10
 CH4             4.0114-4
 CH3OH           1.0092-9
 *CO             5.2415-1
 *CO2            1.5854-5
 COOH            9.934-10
 *C2             6.7158-7
 C2H             1.4380-4
 C2H2,acetylene  2.0097-2
 C2H2,vinylidene 6.4099-5
 CH2CO,ketene    1.5976-5
 O(CH)2O         8.520-12
 C2H3,vinyl      2.0025-5
 CH3CO,acetyl    2.7215-8
 C2H4            5.2358-5
 C2H4O,ethylen-o 2.528-12
 CH3CHO,ethanal  3.0857-9
 CH3COOH         1.218-13
 C2H5            9.1706-8
 C2H6            2.6066-8
 C2H5OH          3.235-13
 CH3OCH3         6.683-15
 C2O             3.6962-6
 *C3             6.7201-6
 C3H3,1-propynl  1.5182-7
 C3H3,2-propynl  8.9949-5
 C3H4,allene     3.5252-6
 C3H4,propyne    7.5003-6
 C3H4,cyclo-     8.4935-8
 C3H5,allyl      7.9430-8
 C3H6,propylene  2.3516-8
 C3H6,cyclo-     1.799-10
 C3H6O,propylox  7.600-16
 C3H6O,acetone   3.465-13
 C3H6O,propanal  4.967-13
 C3H7,n-propyl   1.568-11
 C3H7,i-propyl   9.837-12
 C3H8            4.292-12
 C3O2            9.6450-8
 *C4             2.2757-8
 C4H2,butadiyne  5.2812-4
 C4H4,1,3-cyclo- 1.4719-9
 C4H6,butadiene  7.6680-9
 C4H6,1butyne    1.3378-9
 C4H6,2butyne    6.485-10
 C4H6,cyclo-     2.831-11
 C4H8,1-butene   3.540-12
 C4H8,cis2-buten 1.105-12
 C4H8,tr2-butene 1.255-12
 C4H8,isobutene  1.223-12
 C4H8,cyclo-     3.425-15
 C4H9,n-butyl    4.309-15
 C4H9,i-butyl    1.994-15
 C4H9,s-butyl    2.676-15
 C4H9,t-butyl    3.332-16
 C4H10,n-butane  7.540-16
 C4H10,isobutane 2.045-16
 *C5             1.2404-7
 C5H6,1,3cyclo-  1.982-10
 C5H8,cyclo-     4.393-14
 C5H10,1-pentene 4.042-16
 C6H2            1.4723-5
 C6H5,phenyl     1.684-10
 C6H5O,phenoxy   1.293-14
 C6H6            2.934-10
 C6H5OH,phenol   1.116-14
 C7H7,benzyl     1.343-12
 C7H8            1.833-13
 C8H8,styrene    7.357-14
 C10H8,naphthale 3.836-15
 *H              1.2921-2
 HCO             2.5150-5
 HCCO            1.5450-6
 HO2             1.753-14
 *H2             3.1720-1
 HCHO,formaldehy 3.3508-6
 HCOOH           6.841-10
 H2O             7.1110-5
 H2O2            1.275-14
 *O              2.3961-8
 *OH             1.0458-6
 *O2             2.124-12
 C(gr)           1.2389-1

  * THERMODYNAMIC PROPERTIES FITTED TO 20000.K


                     DETONATION PROPERTIES OF AN IDEAL REACTING GAS
 CASE =                

             REACTANT                       MOLES         ENERGY      TEMP
                                                         KJ/KG-MOL      K
 FUEL        C6H6                         1.0000000     83032.119    300.000
 OXIDANT     O2                           7.5000000        54.358    300.000

 O/F=    0.90365  %FUEL= 52.530727  R,EQ.RATIO= 3.400000  PHI,EQ.RATIO= 3.400000

 UNBURNED GAS

 P1, BAR           1.0000
 T1, K             300.00
 H1, KJ/KG         559.20
 M1, (1/n)         46.383
 GAMMA1            1.2209
 SON VEL1,M/SEC     256.2

 BURNED GAS

 P, BAR            42.408
 T, K             2968.03
 RHO, KG/CU M    3.4274 0
 H, KJ/KG         2276.67
 U, KJ/KG         1039.36
 G, KJ/KG        -32194.4
 S, KJ/(KG)(K)    11.6141

 M, (1/n)          19.945
 MW, MOL WT        17.090
 (dLV/dLP)t      -1.00420
 (dLV/dLT)p        1.0635
 Cp, KJ/(KG)(K)    3.3512
 GAMMAs            1.1581
 SON VEL,M/SEC     1197.0

 DETONATION PARAMETERS

 P/P1              42.408
 T/T1               9.893
 M/M1              0.4300
 RHO/RHO1          1.8432
 DET MACH NUMBER   8.6107
 DET VEL,M/SEC     2206.4

 MOLE FRACTIONS

 *C              7.5251-7
 *CH             1.4138-6
 CH2             1.8092-5
 CH3             2.3769-4
 CH2OH           2.6664-9
 CH3O            6.174-10
 CH4             4.2551-4
 CH3OH           1.0542-9
 *CO             5.0689-1
 *CO2            1.6116-5
 COOH            9.318-10
 *C2             4.4380-7
 C2H             1.0886-4
 C2H2,acetylene  1.8134-2
 C2H2,vinylidene 5.3092-5
 CH2CO,ketene    1.5217-5
 O(CH)2O         8.038-12
 C2H3,vinyl      1.7677-5
 CH3CO,acetyl    2.5552-8
 C2H4            5.2562-5
 C2H4O,ethylen-o 2.444-12
 CH3CHO,ethanal  3.1659-9
 CH3COOH         1.298-13
 C2H5            8.9874-8
 C2H6            2.8427-8
 C2H5OH          3.484-13
 CH3OCH3         7.023-15
 C2O             2.9210-6
 *C3             4.4739-6
 C3H3,1-propynl  1.2477-7
 C3H3,2-propynl  7.7996-5
 C3H4,allene     3.3012-6
 C3H4,propyne    7.0502-6
 C3H4,cyclo-     7.6242-8
 C3H5,allyl      7.5732-8
 C3H6,propylene  2.4370-8
 C3H6,cyclo-     1.828-10
 C3H6O,propylox  7.610-16
 C3H6O,acetone   3.707-13
 C3H6O,propanal  5.213-13
 C3H7,n-propyl   1.573-11
 C3H7,i-propyl   9.938-12
 C3H8            4.799-12
 C3O2            8.4581-8
 *C4             1.3625-8
 C4H2,butadiyne  4.2774-4
 C4H4,1,3-cyclo- 1.2535-9
 C4H6,butadiene  7.4228-9
 C4H6,1butyne    1.2903-9
 C4H6,2butyne    6.322-10
 C4H6,cyclo-     2.734-11
 C4H8,1-butene   3.762-12
 C4H8,cis2-buten 1.181-12
 C4H8,tr2-butene 1.341-12
 C4H8,isobutene  1.311-12
 C4H8,cyclo-     3.577-15
 C4H9,n-butyl    4.459-15
 C4H9,i-butyl    2.071-15
 C4H9,s-butyl    2.773-15
 C4H9,t-butyl    3.500-16
 C4H10,n-butane  8.635-16
 C4H10,isobutane 2.351-16
 *C5             7.3797-8
 C5H6,1,3cyclo-  1.935-10
 C5H8,cyclo-     4.575-14
 C5H10,1-pentene 4.414-16
 C6H2            1.0695-5
 C6H5,phenyl     1.481-10
 C6H5O,phenoxy   1.199-14
 C6H6            2.948-10
 C6H5OH,phenol   1.120-14
 C7H7,benzyl     1.270-12
 C7H8            1.902-13
 C8H8,styrene    7.305-14
 C10H8,naphthale 3.780-15
 *H              1.1494-2
 HCO             2.2730-5
 HCCO            1.3048-6
 HO2             1.466-14
 *H2             3.1876-1
 HCHO,formaldehy 3.2885-6
 HCOOH           6.983-10
 H2O             7.4337-5
 H2O2            1.157-14
 *O              1.9154-8
 *OH             9.4131-7
 *O2             1.770-12
 C(gr)           1.4314-1

  * THERMODYNAMIC PROPERTIES FITTED TO 20000.K


                     DETONATION PROPERTIES OF AN IDEAL REACTING GAS
 CASE =                

             REACTANT                       MOLES         ENERGY      TEMP
                                                         KJ/KG-MOL      K
 FUEL        C6H6                         1.0000000     83032.119    300.000
 OXIDANT     O2                           7.5000000        54.358    300.000

 O/F=    0.87783  %FUEL= 53.252978  R,EQ.RATIO= 3.500000  PHI,EQ.RATIO= 3.500000

 UNBURNED GAS

 P1, BAR           1.0000
 T1, K             300.00
 H1, KJ/KG         566.87
 M1, (1/n)         46.671
 GAMMA1            1.2189
 SON VEL1,M/SEC     255.2

 BURNED GAS

 P, BAR            41.947
 T, K             2932.05
 RHO, KG/CU M    3.4461 0
 H, KJ/KG         2255.18
 U, KJ/KG         1037.95
 G, KJ/KG        -31667.1
 S, KJ/(KG)(K)    11.5695

 M, (1/n)          20.028
 MW, MOL WT        16.803
 (dLV/dLP)t      -1.00393
 (dLV/dLT)p        1.0587
 Cp, KJ/(KG)(K)    3.2852
 GAMMAs            1.1597
 SON VEL,M/SEC     1188.1

 DETONATION PARAMETERS

 P/P1              41.947
 T/T1               9.774
 M/M1              0.4291
 RHO/RHO1          1.8418
 DET MACH NUMBER   8.5734
 DET VEL,M/SEC     2188.2

 MOLE FRACTIONS

 *C              5.2275-7
 *CH             1.0518-6
 CH2             1.5078-5
 CH3             2.2534-4
 CH2OH           2.5217-9
 CH3O            5.700-10
 CH4             4.5059-4
 CH3OH           1.0994-9
 *CO             4.9080-1
 *CO2            1.6412-5
 COOH            8.748-10
 *C2             2.9318-7
 C2H             8.2361-5
 C2H2,acetylene  1.6348-2
 C2H2,vinylidene 4.3921-5
 CH2CO,ketene    1.4490-5
 O(CH)2O         7.585-12
 C2H3,vinyl      1.5577-5
 CH3CO,acetyl    2.3965-8
 C2H4            5.2655-5
 C2H4O,ethylen-o 2.359-12
 CH3CHO,ethanal  3.2428-9
 CH3COOH         1.383-13
 C2H5            8.7818-8
 C2H6            3.0898-8
 C2H5OH          3.740-13
 CH3OCH3         7.357-15
 C2O             2.3100-6
 *C3             2.9770-6
 C3H3,1-propynl  1.0233-7
 C3H3,2-propynl  6.7506-5
 C3H4,allene     3.0842-6
 C3H4,propyne    6.6115-6
 C3H4,cyclo-     6.8270-8
 C3H5,allyl      7.1990-8
 C3H6,propylene  2.5165-8
 C3H6,cyclo-     1.850-10
 C3H6O,propylox  7.595-16
 C3H6O,acetone   3.955-13
 C3H6O,propanal  5.455-13
 C3H7,n-propyl   1.572-11
 C3H7,i-propyl   9.995-12
 C3H8            5.339-12
 C3O2            7.4276-8
 *C4             8.1527-9
 C4H2,butadiyne  3.4598-4
 C4H4,1,3-cyclo- 1.0646-9
 C4H6,butadiene  7.1655-9
 C4H6,1butyne    1.2397-9
 C4H6,2butyne    6.139-10
 C4H6,cyclo-     2.631-11
 C4H8,1-butene   3.978-12
 C4H8,cis2-buten 1.256-12
 C4H8,tr2-butene 1.426-12
 C4H8,isobutene  1.398-12
 C4H8,cyclo-     3.717-15
 C4H9,n-butyl    4.588-15
 C4H9,i-butyl    2.140-15
 C4H9,s-butyl    2.857-15
 C4H9,t-butyl    3.655-16
 C4H10,n-butane  9.827-16
 C4H10,isobutane 2.687-16
 *C5             4.3869-8
 C5H6,1,3cyclo-  1.883-10
 C5H8,cyclo-     4.741-14
 C5H10,1-pentene 4.789-16
 C6H2            7.7553-6
 C6H5,phenyl     1.299-10
 C6H5O,phenoxy   1.108-14
 C6H6            2.951-10
 C6H5OH,phenol   1.121-14
 C7H7,benzyl     1.195-12
 C7H8            1.964-13
 C8H8,styrene    7.212-14
 C10H8,naphthale 3.705-15
 *H              1.0223-2
 HCO             2.0548-5
 HCCO            1.1021-6
 HO2             1.227-14
 *H2             3.2016-1
 HCHO,formaldehy 3.2266-6
 HCOOH           7.131-10
 H2O             7.7711-5
 H2O2            1.051-14
 *O              1.5325-8
 *OH             8.4755-7
 *O2             1.477-12
 C(gr)           1.6101-1

  * THERMODYNAMIC PROPERTIES FITTED TO 20000.K


                     DETONATION PROPERTIES OF AN IDEAL REACTING GAS
 CASE =                

             REACTANT                       MOLES         ENERGY      TEMP
                                                         KJ/KG-MOL      K
 FUEL        C6H6                         1.0000000     83032.119    300.000
 OXIDANT     O2                           7.5000000        54.358    300.000

 O/F=    0.85345  %FUEL= 53.953581  R,EQ.RATIO= 3.600000  PHI,EQ.RATIO= 3.600000

 UNBURNED GAS

 P1, BAR           1.0000
 T1, K             300.00
 H1, KJ/KG         574.30
 M1, (1/n)         46.954
 GAMMA1            1.2171
 SON VEL1,M/SEC     254.3

 BURNED GAS

 P, BAR            41.496
 T, K             2896.85
 RHO, KG/CU M    3.4644 0
 H, KJ/KG         2234.40
 U, KJ/KG         1036.61
 G, KJ/KG        -31153.8
 S, KJ/(KG)(K)    11.5257

 M, (1/n)          20.109
 MW, MOL WT        16.536
 (dLV/dLP)t      -1.00369
 (dLV/dLT)p        1.0542
 Cp, KJ/(KG)(K)    3.2233
 GAMMAs            1.1613
 SON VEL,M/SEC     1179.4

 DETONATION PARAMETERS

 P/P1              41.496
 T/T1               9.656
 M/M1              0.4283
 RHO/RHO1          1.8404
 DET MACH NUMBER   8.5364
 DET VEL,M/SEC     2170.6

 MOLE FRACTIONS

 *C              3.6312-7
 *CH             7.8209-7
 CH2             1.2553-5
 CH3             2.1333-4
 CH2OH           2.3825-9
 CH3O            5.258-10
 CH4             4.7642-4
 CH3OH           1.1451-9
 *CO             4.7577-1
 *CO2            1.6744-5
 COOH            8.220-10
 *C2             1.9362-7
 C2H             6.2273-5
 C2H2,acetylene  1.4725-2
 C2H2,vinylidene 3.6291-5
 CH2CO,ketene    1.3794-5
 O(CH)2O         7.158-12
 C2H3,vinyl      1.3703-5
 CH3CO,acetyl    2.2455-8
 C2H4            5.2646-5
 C2H4O,ethylen-o 2.273-12
 CH3CHO,ethanal  3.3169-9
 CH3COOH         1.471-13
 C2H5            8.5578-8
 C2H6            3.3481-8
 C2H5OH          4.005-13
 CH3OCH3         7.687-15
 C2O             1.8281-6
 *C3             1.9801-6
 C3H3,1-propynl  8.3769-8
 C3H3,2-propynl  5.8327-5
 C3H4,allene     2.8753-6
 C3H4,propyne    6.1869-6
 C3H4,cyclo-     6.0995-8
 C3H5,allyl      6.8246-8
 C3H6,propylene  2.5902-8
 C3H6,cyclo-     1.867-10
 C3H6O,propylox  7.559-16
 C3H6O,acetone   4.208-13
 C3H6O,propanal  5.692-13
 C3H7,n-propyl   1.565-11
 C3H7,i-propyl   1.001-11
 C3H8            5.915-12
 C3O2            6.5313-8
 *C4             4.8755-9
 C4H2,butadiyne  2.7951-4
 C4H4,1,3-cyclo- 9.020-10
 C4H6,butadiene  6.9001-9
 C4H6,1butyne    1.1869-9
 C4H6,2butyne    5.942-10
 C4H6,cyclo-     2.522-11
 C4H8,1-butene   4.188-12
 C4H8,cis2-buten 1.330-12
 C4H8,tr2-butene 1.509-12
 C4H8,isobutene  1.484-12
 C4H8,cyclo-     3.846-15
 C4H9,n-butyl    4.695-15
 C4H9,i-butyl    2.198-15
 C4H9,s-butyl    2.928-15
 C4H9,t-butyl    3.796-16
 C4H10,n-butane  1.112-15
 C4H10,isobutane 3.052-16
 *C5             2.6059-8
 C5H6,1,3cyclo-  1.826-10
 C5H8,cyclo-     4.891-14
 C5H10,1-pentene 5.166-16
 C6H2            5.6150-6
 C6H5,phenyl     1.135-10
 C6H5O,phenoxy   1.022-14
 C6H6            2.943-10
 C6H5OH,phenol   1.119-14
 C7H7,benzyl     1.120-12
 C7H8            2.019-13
 C8H8,styrene    7.084-14
 C10H8,naphthale 3.614-15
 *H              9.0935-3
 HCO             1.8581-5
 HCCO            9.3090-7
 HO2             1.028-14
 *H2             3.2141-1
 HCHO,formaldehy 3.1653-6
 HCOOH           7.286-10
 H2O             8.1244-5
 H2O2            9.538-15
 *O              1.2271-8
 *OH             7.6342-7
 *O2             1.235-12
 C(gr)           1.7764-1

  * THERMODYNAMIC PROPERTIES FITTED TO 20000.K



