
 *******************************************************************************

         NASA-GLENN CHEMICAL EQUILIBRIUM PROGRAM CEA2, MAY 21, 2004
                   BY  BONNIE MCBRIDE AND SANFORD GORDON
      REFS: NASA RP-1311, PART I, 1994 AND NASA RP-1311, PART II, 1996

 *******************************************************************************



 problem    phi,eq.ratio=0.5,0.6,0.7,0.8,0.9,1,1.1,1.2,1.3,1.4,1.5,1.6,1.7,1.8,1.
 9,2,
       tv   t,k=2500,  rho,kg/m**3=1.543,
 react
   fuel=C6H6 moles=1  t,k=300
   oxid=O2 moles=7.5  t,k=300
 output  short   trace=1e-16
 end




               THERMODYNAMIC EQUILIBRIUM PROPERTIES AT ASSIGNED

                            TEMPERATURE AND VOLUME

 CASE =                

             REACTANT                       MOLES         ENERGY      TEMP
                                                         KJ/KG-MOL      K
 FUEL        C6H6                         1.0000000     80537.766    300.000
 OXIDANT     O2                           7.5000000     -2439.995    300.000

 O/F=    6.14480  %FUEL= 13.996184  R,EQ.RATIO= 0.500000  PHI,EQ.RATIO= 0.500000

 THERMODYNAMIC PROPERTIES

 P, BAR            9.5655
 T, K             2500.00
 RHO, KG/CU M    1.5430 0
 H, KJ/KG        -2480.12
 U, KJ/KG        -3100.04
 G, KJ/KG        -23610.3
 S, KJ/(KG)(K)     8.4521

 M, (1/n)          33.530
 (dLV/dLP)t      -1.00345
 (dLV/dLT)p        1.0928
 Cp, KJ/(KG)(K)    2.1044
 GAMMAs            1.1591
 SON VEL,M/SEC      847.7

 MOLE FRACTIONS

 *CO             6.2881-3
 *CO2            3.5419-1
 COOH            9.1726-8
 HO(CO)2OH       1.473-16
 *H              1.8102-4
 HCO             1.5365-9
 HO2             6.0150-5
 *H2             4.9415-4
 HCHO,formaldehy 1.210-11
 HCOOH           3.8715-9
 H2O             1.7242-1
 H2O2            2.5387-6
 *O              3.1369-3
 *OH             1.4414-2
 *O2             4.4882-1
 O3              3.4010-7

  * THERMODYNAMIC PROPERTIES FITTED TO 20000.K









               THERMODYNAMIC EQUILIBRIUM PROPERTIES AT ASSIGNED

                            TEMPERATURE AND VOLUME

 CASE =                

             REACTANT                       MOLES         ENERGY      TEMP
                                                         KJ/KG-MOL      K
 FUEL        C6H6                         1.0000000     80537.766    300.000
 OXIDANT     O2                           7.5000000     -2439.995    300.000

 O/F=    5.12067  %FUEL= 16.338079  R,EQ.RATIO= 0.600000  PHI,EQ.RATIO= 0.600000

 THERMODYNAMIC PROPERTIES

 P, BAR            9.4844
 T, K             2500.00
 RHO, KG/CU M    1.5430 0
 H, KJ/KG        -3313.76
 U, KJ/KG        -3928.44
 G, KJ/KG        -24497.1
 S, KJ/(KG)(K)     8.4733

 M, (1/n)          33.817
 (dLV/dLP)t      -1.00395
 (dLV/dLT)p        1.1063
 Cp, KJ/(KG)(K)    2.2313
 GAMMAs            1.1506
 SON VEL,M/SEC      841.0

 MOLE FRACTIONS

 *C              1.099-16
 CH2OH           1.759-16
 *CO             8.3627-3
 *CO2            4.1603-1
 COOH            1.2417-7
 HO(CO)2OH       2.677-16
 *H              2.1041-4
 HCO             2.3551-9
 HO2             5.4538-5
 *H2             6.6199-4
 HCHO,formaldehy 2.137-11
 HCOOH           6.0404-9
 H2O             2.0400-1
 H2O2            2.6529-6
 *O              2.7942-3
 *OH             1.4798-2
 *O2             3.5309-1
 O3              2.3631-7

  * THERMODYNAMIC PROPERTIES FITTED TO 20000.K









               THERMODYNAMIC EQUILIBRIUM PROPERTIES AT ASSIGNED

                            TEMPERATURE AND VOLUME

 CASE =                

             REACTANT                       MOLES         ENERGY      TEMP
                                                         KJ/KG-MOL      K
 FUEL        C6H6                         1.0000000     80537.766    300.000
 OXIDANT     O2                           7.5000000     -2439.995    300.000

 O/F=    4.38915  %FUEL= 18.555815  R,EQ.RATIO= 0.700000  PHI,EQ.RATIO= 0.700000

 THERMODYNAMIC PROPERTIES

 P, BAR            9.4104
 T, K             2500.00
 RHO, KG/CU M    1.5430 0
 H, KJ/KG        -4098.76
 U, KJ/KG        -4708.64
 G, KJ/KG        -25313.1
 S, KJ/(KG)(K)     8.4857

 M, (1/n)          34.083
 (dLV/dLP)t      -1.00460
 (dLV/dLT)p        1.1234
 Cp, KJ/(KG)(K)    2.3772
 GAMMAs            1.1427
 SON VEL,M/SEC      834.8

 MOLE FRACTIONS

 *C              1.707-16
 CH2OH           3.595-16
 *CO             1.1133-2
 *CO2            4.7466-1
 COOH            1.6343-7
 HO(CO)2OH       4.602-16
 *H              2.4463-4
 HCO             3.6167-9
 HO2             4.6574-5
 *H2             8.8785-4
 HCHO,formaldehy 3.786-11
 HCOOH           9.1707-9
 H2O             2.3449-1
 H2O2            2.6134-6
 *O              2.4136-3
 *OH             1.4745-2
 *O2             2.6139-1
 O3              1.4993-7

  * THERMODYNAMIC PROPERTIES FITTED TO 20000.K









               THERMODYNAMIC EQUILIBRIUM PROPERTIES AT ASSIGNED

                            TEMPERATURE AND VOLUME

 CASE =                

             REACTANT                       MOLES         ENERGY      TEMP
                                                         KJ/KG-MOL      K
 FUEL        C6H6                         1.0000000     80537.766    300.000
 OXIDANT     O2                           7.5000000     -2439.995    300.000

 O/F=    3.84050  %FUEL= 20.659010  R,EQ.RATIO= 0.800000  PHI,EQ.RATIO= 0.800000

 THERMODYNAMIC PROPERTIES

 P, BAR            9.3463
 T, K             2500.00
 RHO, KG/CU M    1.5430 0
 H, KJ/KG        -4833.35
 U, KJ/KG        -5439.07
 G, KJ/KG        -26061.0
 S, KJ/(KG)(K)     8.4910

 M, (1/n)          34.317
 (dLV/dLP)t      -1.00553
 (dLV/dLT)p        1.1479
 Cp, KJ/(KG)(K)    2.5660
 GAMMAs            1.1349
 SON VEL,M/SEC      829.1

 MOLE FRACTIONS

 *C              2.880-16
 CH3             1.475-16
 CH2OH           7.946-16
 CH3O            1.292-16
 *CO             1.5270-2
 *CO2            5.2929-1
 COOH            2.1365-7
 HO(CO)2OH       7.811-16
 *H              2.8876-4
 HCO             5.8158-9
 HO2             3.6336-5
 *H2             1.2287-3
 HCHO,formaldehy 7.138-11
 HCOOH           1.4056-8
 H2O             2.6381-1
 H2O2            2.3903-6
 *O              1.9756-3
 *OH             1.4150-2
 *O2             1.7394-1
 O3              8.1111-8

  * THERMODYNAMIC PROPERTIES FITTED TO 20000.K









               THERMODYNAMIC EQUILIBRIUM PROPERTIES AT ASSIGNED

                            TEMPERATURE AND VOLUME

 CASE =                

             REACTANT                       MOLES         ENERGY      TEMP
                                                         KJ/KG-MOL      K
 FUEL        C6H6                         1.0000000     80537.766    300.000
 OXIDANT     O2                           7.5000000     -2439.995    300.000

 O/F=    3.41378  %FUEL= 22.656315  R,EQ.RATIO= 0.900000  PHI,EQ.RATIO= 0.900000

 THERMODYNAMIC PROPERTIES

 P, BAR            9.3019
 T, K             2500.00
 RHO, KG/CU M    1.5430 0
 H, KJ/KG        -5503.32
 U, KJ/KG        -6106.16
 G, KJ/KG        -26738.6
 S, KJ/(KG)(K)     8.4941

 M, (1/n)          34.480
 (dLV/dLP)t      -1.00713
 (dLV/dLT)p        1.1898
 Cp, KJ/(KG)(K)    2.8619
 GAMMAs            1.1263
 SON VEL,M/SEC      824.0

 MOLE FRACTIONS

 *C              5.969-16
 CH2             2.037-16
 CH3             5.712-16
 CH2OH           2.232-15
 CH3O            3.627-16
 CH4             1.692-16
 CH3OH           1.181-16
 *CO             2.2956-2
 *CO2            5.7710-1
 COOH            2.8691-7
 HO(CO)2OH       1.402-15
 C2O             2.020-16
 *H              3.5734-4
 HCO             1.0768-8
 HO2             2.3652-5
 *H2             1.8727-3
 HCHO,formaldehy 1.628-10
 HCOOH           2.3247-8
 H2O             2.9161-1
 H2O2            1.9163-6
 *O              1.4397-3
 *OH             1.2700-2
 *O2             9.1932-2
 O3              3.1091-8

  * THERMODYNAMIC PROPERTIES FITTED TO 20000.K









               THERMODYNAMIC EQUILIBRIUM PROPERTIES AT ASSIGNED

                            TEMPERATURE AND VOLUME

 CASE =                

             REACTANT                       MOLES         ENERGY      TEMP
                                                         KJ/KG-MOL      K
 FUEL        C6H6                         1.0000000     80537.766    300.000
 OXIDANT     O2                           7.5000000     -2439.995    300.000

 O/F=    3.07240  %FUEL= 24.555531  R,EQ.RATIO= 1.000000  PHI,EQ.RATIO= 1.000000

 THERMODYNAMIC PROPERTIES

 P, BAR            9.3436
 T, K             2500.00
 RHO, KG/CU M    1.5430 0
 H, KJ/KG        -5998.73
 U, KJ/KG        -6604.28
 G, KJ/KG        -27327.6
 S, KJ/(KG)(K)     8.5316

 M, (1/n)          34.326
 (dLV/dLP)t      -1.00954
 (dLV/dLT)p        1.2531
 Cp, KJ/(KG)(K)    3.3000
 GAMMAs            1.1182
 SON VEL,M/SEC      822.9

 MOLE FRACTIONS

 *C              2.452-15
 *CH             5.741-16
 CH2             1.804-15
 CH3             7.427-15
 CH2OH           1.459-14
 CH3O            2.372-15
 CH4             3.230-15
 CH3OH           1.134-15
 *CO             4.7445-2
 *CO2            6.0001-1
 COOH            4.3793-7
 CH2CO,ketene    2.917-16
 HO(CO)2OH       3.281-15
 C2O             1.723-15
 *H              5.2228-4
 HCO             3.2674-8
 HO2             8.7481-6
 *H2             4.0182-3
 HCHO,formaldehy 7.251-10
 HCOOH           5.2094-8
 H2O             3.1477-1
 H2O2            1.0406-6
 *O              7.2101-4
 *OH             9.3372-3
 *O2             2.3161-2
 O3              3.9403-9

  * THERMODYNAMIC PROPERTIES FITTED TO 20000.K









               THERMODYNAMIC EQUILIBRIUM PROPERTIES AT ASSIGNED

                            TEMPERATURE AND VOLUME

 CASE =                

             REACTANT                       MOLES         ENERGY      TEMP
                                                         KJ/KG-MOL      K
 FUEL        C6H6                         1.0000000     80537.766    300.000
 OXIDANT     O2                           7.5000000     -2439.995    300.000

 O/F=    2.79309  %FUEL= 26.363709  R,EQ.RATIO= 1.100000  PHI,EQ.RATIO= 1.100000

 THERMODYNAMIC PROPERTIES

 P, BAR            9.7912
 T, K             2500.00
 RHO, KG/CU M    1.5430 0
 H, KJ/KG        -5777.41
 U, KJ/KG        -6411.97
 G, KJ/KG        -27762.8
 S, KJ/(KG)(K)     8.7942

 M, (1/n)          32.757
 (dLV/dLP)t      -1.00333
 (dLV/dLT)p        1.0886
 Cp, KJ/(KG)(K)    2.2934
 GAMMAs            1.1466
 SON VEL,M/SEC      853.0

 MOLE FRACTIONS

 *C              2.556-14
 *CH             1.140-14
 CH2             6.828-14
 CH3             5.359-13
 CH2OH           3.039-13
 CH3O            4.939-14
 CH4             4.442-13
 CH3OH           4.500-14
 *CO             1.4269-1
 *CO2            5.2067-1
 COOH            7.2427-7
 C2H2,acetylene  3.429-16
 CH2CO,ketene    3.480-14
 O(CH)2O         8.450-16
 HO(CO)2OH       9.403-15
 C2O             5.658-14
 C3O2            6.403-16
 *H              9.4989-4
 HCO             1.8728-7
 HCCO            5.727-15
 HO2             1.3246-6
 *H2             1.3928-2
 HCHO,formaldehy 7.9215-9
 HCOOH           1.6420-7
 H2O             3.1482-1
 H2O2            3.0029-7
 *O              1.9853-4
 *OH             4.9000-3
 *O2             1.8401-3
 O3              9.033-11

  * THERMODYNAMIC PROPERTIES FITTED TO 20000.K









               THERMODYNAMIC EQUILIBRIUM PROPERTIES AT ASSIGNED

                            TEMPERATURE AND VOLUME

 CASE =                

             REACTANT                       MOLES         ENERGY      TEMP
                                                         KJ/KG-MOL      K
 FUEL        C6H6                         1.0000000     80537.766    300.000
 OXIDANT     O2                           7.5000000     -2439.995    300.000

 O/F=    2.56034  %FUEL= 28.087242  R,EQ.RATIO= 1.200000  PHI,EQ.RATIO= 1.200000

 THERMODYNAMIC PROPERTIES

 P, BAR            10.407
 T, K             2500.00
 RHO, KG/CU M    1.5430 0
 H, KJ/KG        -5245.00
 U, KJ/KG        -5919.49
 G, KJ/KG        -28074.6
 S, KJ/(KG)(K)     9.1318

 M, (1/n)          30.818
 (dLV/dLP)t      -1.00155
 (dLV/dLT)p        1.0407
 Cp, KJ/(KG)(K)    2.0001
 GAMMAs            1.1690
 SON VEL,M/SEC      888.0

 MOLE FRACTIONS

 *C              9.801-14
 *CH             6.527-14
 CH2             5.833-13
 CH3             6.833-12
 CH2OH           1.767-12
 CH3O            2.873-13
 CH4             8.455-12
 CH3OH           3.907-13
 *CO             2.4954-1
 *CO2            4.1533-1
 COOH            8.6239-7
 C2H2,acetylene  1.194-14
 CH2CO,ketene    5.526-13
 O(CH)2O         6.121-15
 HO(CO)2OH       1.417-14
 C2O             4.033-13
 C3O2            8.484-15
 *H              1.3339-3
 HCO             4.8890-7
 HCCO            6.093-14
 HO2             3.8700-7
 *H2             2.9196-2
 HCHO,formaldehy 3.0867-8
 HCOOH           2.9184-7
 H2O             3.0101-1
 H2O2            1.3096-7
 *O              8.5191-5
 *OH             3.1386-3
 *O2             3.6016-4
 O3              8.064-12

  * THERMODYNAMIC PROPERTIES FITTED TO 20000.K









               THERMODYNAMIC EQUILIBRIUM PROPERTIES AT ASSIGNED

                            TEMPERATURE AND VOLUME

 CASE =                

             REACTANT                       MOLES         ENERGY      TEMP
                                                         KJ/KG-MOL      K
 FUEL        C6H6                         1.0000000     80537.766    300.000
 OXIDANT     O2                           7.5000000     -2439.995    300.000

 O/F=    2.36339  %FUEL= 29.731939  R,EQ.RATIO= 1.300000  PHI,EQ.RATIO= 1.300000

 THERMODYNAMIC PROPERTIES

 P, BAR            11.011
 T, K             2500.00
 RHO, KG/CU M    1.5430 0
 H, KJ/KG        -4714.45
 U, KJ/KG        -5428.03
 G, KJ/KG        -28319.7
 S, KJ/(KG)(K)     9.4421

 M, (1/n)          29.129
 (dLV/dLP)t      -1.00114
 (dLV/dLT)p        1.0290
 Cp, KJ/(KG)(K)    1.9405
 GAMMAs            1.1829
 SON VEL,M/SEC      918.7

 MOLE FRACTIONS

 *C              2.268-13
 *CH             1.973-13
 CH2             2.303-12
 CH3             3.524-11
 CH2OH           5.324-12
 CH3O            8.654-13
 CH4             5.695-11
 CH3OH           1.537-12
 *CO             3.3730-1
 *CO2            3.2795-1
 COOH            8.8948-7
 C2H             2.927-16
 C2H2,acetylene  1.154-13
 CH2CO,ketene    3.120-12
 O(CH)2O         2.019-14
 HO(CO)2OH       1.595-14
 CH3CO,acetyl    6.807-16
 C2O             1.334-12
 C3O2            4.014-14
 *H              1.6470-3
 HCO             8.6318-7
 HCCO            2.633-13
 HO2             1.6306-7
 *H2             4.7086-2
 HCHO,formaldehy 7.1186-8
 HCOOH           3.9318-7
 H2O             2.8358-1
 H2O2            7.2075-8
 *O              4.7040-5
 *OH             2.2637-3
 *O2             1.1617-4
 O3              1.520-12

  * THERMODYNAMIC PROPERTIES FITTED TO 20000.K









               THERMODYNAMIC EQUILIBRIUM PROPERTIES AT ASSIGNED

                            TEMPERATURE AND VOLUME

 CASE =                

             REACTANT                       MOLES         ENERGY      TEMP
                                                         KJ/KG-MOL      K
 FUEL        C6H6                         1.0000000     80537.766    300.000
 OXIDANT     O2                           7.5000000     -2439.995    300.000

 O/F=    2.19457  %FUEL= 31.303087  R,EQ.RATIO= 1.400000  PHI,EQ.RATIO= 1.400000

 THERMODYNAMIC PROPERTIES

 P, BAR            11.590
 T, K             2500.00
 RHO, KG/CU M    1.5430 0
 H, KJ/KG        -4206.57
 U, KJ/KG        -4957.69
 G, KJ/KG        -28518.6
 S, KJ/(KG)(K)     9.7248

 M, (1/n)          27.674
 (dLV/dLP)t      -1.00098
 (dLV/dLT)p        1.0243
 Cp, KJ/(KG)(K)    1.9275
 GAMMAs            1.1941
 SON VEL,M/SEC      947.1

 MOLE FRACTIONS

 *C              4.224-13
 *CH             4.510-13
 CH2             6.463-12
 CH3             1.214-10
 CH2OH           1.191-11
 CH3O            1.935-12
 CH4             2.408-10
 CH3OH           4.219-12
 *CO             4.0792-1
 *CO2            2.5749-1
 COOH            8.5716-7
 C2H             1.312-15
 C2H2,acetylene  6.348-13
 C2H2,vinylidene 4.950-16
 CH2CO,ketene    1.115-11
 O(CH)2O         4.681-14
 HO(CO)2OH       1.559-14
 CH3CO,acetyl    2.985-15
 C2H4            3.665-16
 CH3CHO,ethanal  2.829-16
 CH3COOH         1.922-16
 C2O             3.164-12
 C3O2            1.212-13
 *H              1.9204-3
 HCO             1.2813-6
 HCCO            7.664-13
 HO2             8.0139-8
 *H2             6.7389-2
 HCHO,formaldehy 1.2969-7
 HCOOH           4.6505-7
 H2O             2.6350-1
 H2O2            4.3477-8
 *O              2.9013-5
 *OH             1.7137-3
 *O2             4.6518-5
 O3              3.950-13

  * THERMODYNAMIC PROPERTIES FITTED TO 20000.K









               THERMODYNAMIC EQUILIBRIUM PROPERTIES AT ASSIGNED

                            TEMPERATURE AND VOLUME

 CASE =                

             REACTANT                       MOLES         ENERGY      TEMP
                                                         KJ/KG-MOL      K
 FUEL        C6H6                         1.0000000     80537.766    300.000
 OXIDANT     O2                           7.5000000     -2439.995    300.000

 O/F=    2.04827  %FUEL= 32.805512  R,EQ.RATIO= 1.500000  PHI,EQ.RATIO= 1.500000

 THERMODYNAMIC PROPERTIES

 P, BAR            12.145
 T, K             2500.00
 RHO, KG/CU M    1.5430 0
 H, KJ/KG        -3723.31
 U, KJ/KG        -4510.40
 G, KJ/KG        -28681.9
 S, KJ/(KG)(K)     9.9834

 M, (1/n)          26.409
 (dLV/dLP)t      -1.00091
 (dLV/dLT)p        1.0220
 Cp, KJ/(KG)(K)    1.9301
 GAMMAs            1.2041
 SON VEL,M/SEC      973.5

 MOLE FRACTIONS

 *C              7.007-13
 *CH             8.844-13
 CH2             1.498-11
 CH3             3.326-10
 CH2OH           2.239-11
 CH3O            3.639-12
 CH4             7.798-10
 CH3OH           9.378-12
 *CO             4.6434-1
 *CO2            2.0114-1
 COOH            7.9151-7
 C2H             4.472-15
 C2H2,acetylene  2.558-12
 C2H2,vinylidene 1.994-15
 CH2CO,ketene    3.082-11
 O(CH)2O         8.882-14
 HO(CO)2OH       1.393-14
 C2H3,vinyl      4.130-16
 CH3CO,acetyl    9.755-15
 C2H4            2.063-15
 CH3CHO,ethanal  1.093-15
 CH3COOH         5.095-16
 C2O             6.261-12
 C3O2            2.860-13
 *H              2.1664-3
 HCO             1.7241-6
 HCCO            1.793-12
 HO2             4.2573-8
 *H2             8.9864-2
 HCHO,formaldehy 2.0629-7
 HCOOH           5.0763-7
 H2O             2.4113-1
 H2O2            2.7303-8
 *O              1.9000-5
 *OH             1.3266-3
 *O2             2.0905-5
 O3              1.218-13

  * THERMODYNAMIC PROPERTIES FITTED TO 20000.K









               THERMODYNAMIC EQUILIBRIUM PROPERTIES AT ASSIGNED

                            TEMPERATURE AND VOLUME

 CASE =                

             REACTANT                       MOLES         ENERGY      TEMP
                                                         KJ/KG-MOL      K
 FUEL        C6H6                         1.0000000     80537.766    300.000
 OXIDANT     O2                           7.5000000     -2439.995    300.000

 O/F=    1.92025  %FUEL= 34.243626  R,EQ.RATIO= 1.600000  PHI,EQ.RATIO= 1.600000

 THERMODYNAMIC PROPERTIES

 P, BAR            12.677
 T, K             2500.00
 RHO, KG/CU M    1.5430 0
 H, KJ/KG        -3264.02
 U, KJ/KG        -4085.58
 G, KJ/KG        -28816.2
 S, KJ/(KG)(K)    10.2209

 M, (1/n)          25.301
 (dLV/dLP)t      -1.00088
 (dLV/dLT)p        1.0208
 Cp, KJ/(KG)(K)    1.9395
 GAMMAs            1.2131
 SON VEL,M/SEC      998.3

 MOLE FRACTIONS

 *C              1.084-12
 *CH             1.575-12
 CH2             3.071-11
 CH3             7.849-10
 CH2OH           3.744-11
 CH3O            6.086-12
 CH4             2.1186-9
 CH3OH           1.806-11
 *CO             5.0918-1
 *CO2            1.5632-1
 COOH            7.0812-7
 C2H             1.286-14
 C2H2,acetylene  8.468-12
 C2H2,vinylidene 6.603-15
 CH2CO,ketene    7.231-11
 O(CH)2O         1.477-13
 HO(CO)2OH       1.164-14
 C2H3,vinyl      1.574-15
 CH3CO,acetyl    2.635-14
 C2H4            9.053-15
 CH3CHO,ethanal  3.398-15
 CH3COOH         1.123-15
 C2O             1.109-11
 C3O2            5.797-13
 *H              2.3892-3
 HCO             2.1763-6
 HCCO            3.655-12
 HO2             2.3585-8
 *H2             1.1408-1
 HCHO,formaldehy 2.9976-7
 HCOOH           5.2279-7
 H2O             2.1696-1
 H2O2            1.7411-8
 *O              1.2901-5
 *OH             1.0369-3
 *O2             1.0061-5
 O3              4.155-14

  * THERMODYNAMIC PROPERTIES FITTED TO 20000.K









               THERMODYNAMIC EQUILIBRIUM PROPERTIES AT ASSIGNED

                            TEMPERATURE AND VOLUME

 CASE =                

             REACTANT                       MOLES         ENERGY      TEMP
                                                         KJ/KG-MOL      K
 FUEL        C6H6                         1.0000000     80537.766    300.000
 OXIDANT     O2                           7.5000000     -2439.995    300.000

 O/F=    1.80730  %FUEL= 35.621473  R,EQ.RATIO= 1.700000  PHI,EQ.RATIO= 1.700000

 THERMODYNAMIC PROPERTIES

 P, BAR            13.186
 T, K             2500.00
 RHO, KG/CU M    1.5430 0
 H, KJ/KG        -2827.32
 U, KJ/KG        -3681.92
 G, KJ/KG        -28925.9
 S, KJ/(KG)(K)    10.4394

 M, (1/n)          24.323
 (dLV/dLP)t      -1.00086
 (dLV/dLT)p        1.0201
 Cp, KJ/(KG)(K)    1.9521
 GAMMAs            1.2215
 SON VEL,M/SEC     1021.7

 MOLE FRACTIONS

 *C              1.606-12
 *CH             2.631-12
 CH2             5.786-11
 CH3             1.6676-9
 CH2OH           5.746-11
 CH3O            9.339-12
 CH4             5.0764-9
 CH3OH           3.125-11
 *CO             5.4474-1
 *CO2            1.2078-1
 COOH            6.1702-7
 C2H             3.311-14
 C2H2,acetylene  2.458-11
 C2H2,vinylidene 1.917-14
 CH2CO,ketene    1.516-10
 O(CH)2O         2.237-13
 HO(CO)2OH       9.191-15
 C2H3,vinyl      5.154-15
 CH3CO,acetyl    6.231-14
 C2H4            3.342-14
 CH3CHO,ethanal  9.061-15
 CH3COOH         2.162-15
 C2O             1.828-11
 C3O2            1.063-12
 *H              2.5903-3
 HCO             2.6257-6
 HCCO            6.794-12
 HO2             1.3337-8
 *H2             1.3948-1
 HCHO,formaldehy 4.0786-7
 HCOOH           5.1372-7
 H2O             1.9157-1
 H2O2            1.1103-8
 *O              8.9573-6
 *OH             8.1191-4
 *O2             5.0447-6
 O3              1.505-14

  * THERMODYNAMIC PROPERTIES FITTED TO 20000.K









               THERMODYNAMIC EQUILIBRIUM PROPERTIES AT ASSIGNED

                            TEMPERATURE AND VOLUME

 CASE =                

             REACTANT                       MOLES         ENERGY      TEMP
                                                         KJ/KG-MOL      K
 FUEL        C6H6                         1.0000000     80537.766    300.000
 OXIDANT     O2                           7.5000000     -2439.995    300.000

 O/F=    1.70689  %FUEL= 36.942762  R,EQ.RATIO= 1.800000  PHI,EQ.RATIO= 1.800000

 THERMODYNAMIC PROPERTIES

 P, BAR            13.675
 T, K             2500.00
 RHO, KG/CU M    1.5430 0
 H, KJ/KG        -2411.61
 U, KJ/KG        -3297.90
 G, KJ/KG        -29014.5
 S, KJ/(KG)(K)    10.6412

 M, (1/n)          23.453
 (dLV/dLP)t      -1.00086
 (dLV/dLT)p        1.0197
 Cp, KJ/(KG)(K)    1.9662
 GAMMAs            1.2294
 SON VEL,M/SEC     1043.9

 MOLE FRACTIONS

 *C              2.318-12
 *CH             4.212-12
 CH2             1.027-10
 CH3             3.2843-9
 CH2OH           8.246-11
 CH3O            1.340-11
 CH4             1.1089-8
 CH3OH           4.974-11
 *CO             5.7295-1
 *CO2            9.2572-2
 COOH            5.2453-7
 *C2             1.196-16
 C2H             7.935-14
 C2H2,acetylene  6.534-11
 C2H2,vinylidene 5.095-14
 CH2CO,ketene    2.937-10
 O(CH)2O         3.157-13
 HO(CO)2OH       6.889-15
 C2H3,vinyl      1.519-14
 CH3CO,acetyl    1.339-13
 C2H4            1.093-13
 CH3CHO,ethanal  2.159-14
 CH3COOH         3.755-15
 C2O             2.878-11
 C3O2            1.826-12
 *H              2.7702-3
 HCO             3.0632-6
 HCCO            1.186-11
 HO2             7.5740-9
 *H2             1.6546-1
 HCHO,formaldehy 5.2775-7
 HCOOH           4.8439-7
 H2O             1.6560-1
 H2O2            6.9941-9
 *O              6.2938-6
 *OH             6.3275-4
 *O2             2.5830-6
 O3              5.614-15

  * THERMODYNAMIC PROPERTIES FITTED TO 20000.K









               THERMODYNAMIC EQUILIBRIUM PROPERTIES AT ASSIGNED

                            TEMPERATURE AND VOLUME

 CASE =                

             REACTANT                       MOLES         ENERGY      TEMP
                                                         KJ/KG-MOL      K
 FUEL        C6H6                         1.0000000     80537.766    300.000
 OXIDANT     O2                           7.5000000     -2439.995    300.000

 O/F=    1.61705  %FUEL= 38.210906  R,EQ.RATIO= 1.900000  PHI,EQ.RATIO= 1.900000

 THERMODYNAMIC PROPERTIES

 P, BAR            14.145
 T, K             2500.00
 RHO, KG/CU M    1.5430 0
 H, KJ/KG        -2015.26
 U, KJ/KG        -2931.97
 G, KJ/KG        -29084.4
 S, KJ/(KG)(K)    10.8276

 M, (1/n)          22.675
 (dLV/dLP)t      -1.00086
 (dLV/dLT)p        1.0195
 Cp, KJ/(KG)(K)    1.9811
 GAMMAs            1.2369
 SON VEL,M/SEC     1064.8

 MOLE FRACTIONS

 *C              3.307-12
 *CH             6.575-12
 CH2             1.754-10
 CH3             6.1352-9
 CH2OH           1.122-10
 CH3O            1.824-11
 CH4             2.2663-8
 CH3OH           7.405-11
 *CO             5.9544-1
 *CO2            7.0082-2
 COOH            4.3443-7
 *C2             2.519-16
 C2H             1.827-13
 C2H2,acetylene  1.646-10
 C2H2,vinylidene 1.284-13
 CH2CO,ketene    5.390-10
 O(CH)2O         4.221-13
 HO(CO)2OH       4.888-15
 C2H3,vinyl      4.188-14
 CH3CO,acetyl    2.688-13
 C2H4            3.296-13
 CH3CHO,ethanal  4.743-14
 CH3COOH         6.009-15
 C2H5            1.432-16
 C2O             4.413-11
 C3O2            3.011-12
 *H              2.9301-3
 HCO             3.4827-6
 HCCO            1.990-11
 HO2             4.2511-9
 *H2             1.9146-1
 HCHO,formaldehy 6.5644-7
 HCOOH           4.3890-7
 H2O             1.3959-1
 H2O2            4.2946-9
 *O              4.4326-6
 *OH             4.8753-4
 *O2             1.3252-6
 O3              2.098-15

  * THERMODYNAMIC PROPERTIES FITTED TO 20000.K









               THERMODYNAMIC EQUILIBRIUM PROPERTIES AT ASSIGNED

                            TEMPERATURE AND VOLUME

 CASE =                

             REACTANT                       MOLES         ENERGY      TEMP
                                                         KJ/KG-MOL      K
 FUEL        C6H6                         1.0000000     80537.766    300.000
 OXIDANT     O2                           7.5000000     -2439.995    300.000

 O/F=    1.53620  %FUEL= 39.429049  R,EQ.RATIO= 2.000000  PHI,EQ.RATIO= 2.000000

 THERMODYNAMIC PROPERTIES

 P, BAR            14.596
 T, K             2500.00
 RHO, KG/CU M    1.5430 0
 H, KJ/KG        -1636.72
 U, KJ/KG        -2582.67
 G, KJ/KG        -29137.2
 S, KJ/(KG)(K)    11.0002

 M, (1/n)          21.974
 (dLV/dLP)t      -1.00086
 (dLV/dLT)p        1.0194
 Cp, KJ/(KG)(K)    1.9964
 GAMMAs            1.2439
 SON VEL,M/SEC     1084.8

 MOLE FRACTIONS

 *C              4.730-12
 *CH             1.017-11
 CH2             2.935-10
 CH3             1.1102-8
 CH2OH           1.463-10
 CH3O            2.378-11
 CH4             4.4354-8
 CH3OH           1.044-10
 *CO             6.1350-1
 *CO2            5.2016-2
 COOH            3.4874-7
 *C2             5.317-16
 C2H             4.172-13
 C2H2,acetylene  4.065-10
 C2H2,vinylidene 3.170-13
 CH2CO,ketene    9.588-10
 O(CH)2O         5.409-13
 HO(CO)2OH       3.250-15
 C2H3,vinyl      1.119-13
 CH3CO,acetyl    5.171-13
 C2H4            9.520-13
 CH3CHO,ethanal  9.870-14
 CH3COOH         9.007-15
 C2H5            4.474-16
 C2H6            2.905-16
 C2O             6.711-11
 C3H3,2-propynl  1.554-16
 C3O2            4.868-12
 *H              3.0711-3
 HCO             3.8810-6
 HCCO            3.274-11
 HO2             2.3122-9
 *H2             2.1705-1
 HCHO,formaldehy 7.9117-7
 HCOOH           3.8106-7
 H2O             1.1399-1
 H2O2            2.5264-9
 *O              3.0944-6
 *OH             3.6811-4
 *O2             6.6641-7
 O3              7.601-16

  * THERMODYNAMIC PROPERTIES FITTED TO 20000.K



