 *******************************************************************************

         NASA-GLENN CHEMICAL EQUILIBRIUM PROGRAM CEA2, FEBRUARY 5, 2004
                   BY  BONNIE MCBRIDE AND SANFORD GORDON
      REFS: NASA RP-1311, PART I, 1994 AND NASA RP-1311, PART II, 1996

 *******************************************************************************



  
 ### CEA analysis performed on Mon 11-Jul-2022 13:43:21
  
 # Problem Type: "Combustion at Assigned Volume"
  
 prob case=test___________6313 uv
  
 # Density (1 value):
 rho,kg/m**3= 1.0418
  
 # Equivalence based on Fuel/Oxid. wt ratio (Eq 9.19*) (1 value):
 phi= 3.3
  
 # You selected the following fuels and oxidizers:
 reac
 fuel CH4              mole=100.0000  t,k= 300.000
 oxid Air              mole=100.0000  t,k= 300.000
  
 # You selected these options for output:
 # short version of output
 output short
 # Proportions of any products will be expressed as Mole Fractions.
 # Heat will be expressed as siunits
 output siunits
 # Trace variable:
 output trace=1e-16
  
 # Input prepared by this script:/var/www/sites/cearun.grc.nasa.gov/cgi-bin/CEARU
 N/prepareInputFile.cgi
  
 ### IMPORTANT:  The following line is the end of your CEA input file!
 end




         THERMODYNAMIC EQUILIBRIUM COMBUSTION PROPERTIES AT ASSIGNED

                                     VOLUME

 CASE = test___________

             REACTANT                       MOLES         ENERGY      TEMP
                                                         KJ/KG-MOL      K
 FUEL        CH4                        100.0000000    -77028.260    300.000
 OXIDANT     Air                        100.0000000     -2566.042    300.000

 O/F=    5.22379  %FUEL= 16.067368  R,EQ.RATIO= 3.296503  PHI,EQ.RATIO= 3.300000

 THERMODYNAMIC PROPERTIES

 P, BAR            5.1729
 T, K             1143.09
 RHO, KG/CU M    1.0418 0
 H, KJ/KG         -349.30
 U, KJ/KG         -845.84
 G, KJ/KG        -12910.6
 S, KJ/(KG)(K)    10.9889

 M, (1/n)          19.141
 (dLV/dLP)t      -1.02038
 (dLV/dLT)p        1.2520
 Cp, KJ/(KG)(K)    3.1573
 GAMMAs            1.2427
 SON VEL,M/SEC      785.5

 MOLE FRACTIONS

 *Ar             5.1943-3
 CH2             1.643-16
 CH3             6.2852-9
 CH2OH           1.178-13
 CH3O            2.140-15
 CH4             6.7075-3
 CH3OH           3.0922-9
 *CN             2.473-16
 *CO             1.7074-1
 *CO2            1.4426-2
 COOH            2.767-12
 C2H2,acetylene  2.3884-9
 CH2CO,ketene    5.8020-9
 O(CH)2O         3.002-15
 C2H3,vinyl      1.351-14
 CH3CN           2.6445-8
 CH3CO,acetyl    2.573-13
 C2H4            1.3002-7
 C2H4O,ethylen-o 1.725-16
 CH3CHO,ethanal  3.980-10
 CH3COOH         1.015-11
 C2H5            1.215-12
 C2H6            7.1177-8
 C2H5OH          4.850-13
 CH3OCH3         4.091-16
 C2N2            1.259-13
 C3H3,2-propynl  2.469-15
 C3H4,allene     3.968-13
 C3H4,propyne    1.333-12
 C3H5,allyl      1.611-14
 C3H6,propylene  3.203-11
 C3H6,cyclo-     2.400-14
 C3H6O,acetone   9.112-14
 C3H6O,propanal  1.133-14
 C3H8            2.663-12
 C3O2            5.197-14
 C4H6,butadiene  5.178-15
 C4H6,2butyne    1.201-16
 C4H8,1-butene   1.126-15
 C4H8,cis2-buten 7.286-16
 C4H8,tr2-butene 8.293-16
 C4H8,isobutene  1.161-15
 C6H6            6.168-16
 *H              1.6543-8
 HCN             8.2576-6
 HCO             1.458-10
 HCCO            5.328-16
 HNC             2.4810-8
 HNCO            2.5776-7
 *H2             3.3661-1
 HCHO,formaldehy 1.5199-7
 HCOOH           2.3908-8
 H2O             3.3133-2
 NCO             1.506-15
 *NH             2.058-16
 NH2             1.473-11
 NH3             1.6857-4
 *NO             3.180-14
 *N2             4.3301-1
 N2H2            1.933-16
 *OH             1.174-11

  * THERMODYNAMIC PROPERTIES FITTED TO 20000.K


