*******************************************************************************

         NASA-GLENN CHEMICAL EQUILIBRIUM PROGRAM CEA2, FEBRUARY 5, 2004
                   BY  BONNIE MCBRIDE AND SANFORD GORDON
      REFS: NASA RP-1311, PART I, 1994 AND NASA RP-1311, PART II, 1996

 *******************************************************************************



  
 ### CEA analysis performed on Mon 11-Jul-2022 13:32:49
  
 # Problem Type: "Combustion at Assigned Volume"
  
 prob case=test___________5469 uv
  
 # Density (1 value):
 rho,kg/m**3= 1.0934
  
 # Equivalence based on Fuel/Oxid. wt ratio (Eq 9.19*) (1 value):
 phi= 1.8
  
 # You selected the following fuels and oxidizers:
 reac
 fuel CH4              mole=100.0000  t,k= 300.000
 oxid Air              mole=100.0000  t,k= 300.000
  
 # You selected these options for output:
 # short version of output
 output short
 # Proportions of any products will be expressed as Mole Fractions.
 # Heat will be expressed as siunits
 output siunits
 # Trace variable:
 output trace=1e-16
  
 # Input prepared by this script:/var/www/sites/cearun.grc.nasa.gov/cgi-bin/CEARU
 N/prepareInputFile.cgi
  
 ### IMPORTANT:  The following line is the end of your CEA input file!
 end




         THERMODYNAMIC EQUILIBRIUM COMBUSTION PROPERTIES AT ASSIGNED

                                     VOLUME

 CASE = test___________

             REACTANT                       MOLES         ENERGY      TEMP
                                                         KJ/KG-MOL      K
 FUEL        CH4                        100.0000000    -77028.260    300.000
 OXIDANT     Air                        100.0000000     -2566.042    300.000

 O/F=    9.57696  %FUEL=  9.454515  R,EQ.RATIO= 1.798784  PHI,EQ.RATIO= 1.800000

 THERMODYNAMIC PROPERTIES

 P, BAR            8.0314
 T, K             2083.54
 RHO, KG/CU M    1.0934 0
 H, KJ/KG          200.36
 U, KJ/KG         -534.18
 G, KJ/KG        -21165.0
 S, KJ/(KG)(K)    10.2543

 M, (1/n)          23.584
 (dLV/dLP)t      -1.00011
 (dLV/dLT)p        1.0028
 Cp, KJ/(KG)(K)    1.6846
 GAMMAs            1.2664
 SON VEL,M/SEC      964.5

 MOLE FRACTIONS

 *Ar             6.9044-3
 *C              1.530-15
 *CH             6.303-15
 CH2             8.115-13
 CH3             1.905-10
 CH2OH           2.265-12
 CH3O            2.430-13
 CH4             3.5952-9
 CH3OH           5.644-12
 *CN             3.395-11
 *CO             1.1386-1
 *CO2            2.5367-2
 COOH            1.7816-8
 C2H2,acetylene  9.009-13
 C2H2,vinylidene 1.278-16
 CH2CO,ketene    5.803-12
 O(CH)2O         2.668-15
 CH3CN           3.895-15
 CH3CO,acetyl    1.219-15
 C2H4            4.211-15
 CH3CHO,ethanal  6.477-16
 CH3COOH         1.234-16
 OCCN            2.047-14
 C2N2            1.146-14
 C2O             4.343-14
 C3O2            3.934-15
 *H              3.6250-4
 HCN             4.5005-7
 HCO             9.7284-8
 HCCO            3.793-14
 HNC             2.6378-8
 HNCO            1.4006-7
 HNO             1.3313-9
 HNO2            8.568-12
 HO2             7.647-11
 *H2             1.3308-1
 HCHO,formaldehy 5.0048-8
 HCOOH           5.1601-8
 H2O             1.4469-1
 H2O2            2.031-10
 *N              7.681-10
 NCO             1.879-10
 *NH             3.4348-9
 NH2             5.2009-8
 NH3             5.2409-6
 NH2OH           4.565-12
 *NO             3.6100-6
 NO2             6.884-12
 *N2             5.7567-1
 N2O             5.086-10
 NCN             6.191-16
 N2H2            3.047-12
 N2H4            2.154-15
 N3              6.942-15
 N3H             4.489-14
 *O              8.8526-8
 *OH             5.1287-5
 *O2             4.1076-8

  * THERMODYNAMIC PROPERTIES FITTED TO 20000.K



