*******************************************************************************

         NASA-GLENN CHEMICAL EQUILIBRIUM PROGRAM CEA2, FEBRUARY 5, 2004
                   BY  BONNIE MCBRIDE AND SANFORD GORDON
      REFS: NASA RP-1311, PART I, 1994 AND NASA RP-1311, PART II, 1996

 *******************************************************************************



  
 ### CEA analysis performed on Mon 11-Jul-2022 13:30:57
  
 # Problem Type: "Combustion at Assigned Volume"
  
 prob case=test___________5469 uv
  
 # Density (1 value):
 rho,kg/m**3= 1.1053
  
 # Equivalence based on Fuel/Oxid. wt ratio (Eq 9.19*) (1 value):
 phi= 1.5
  
 # You selected the following fuels and oxidizers:
 reac
 fuel CH4              mole=100.0000  t,k= 300.000
 oxid Air              mole=100.0000  t,k= 300.000
  
 # You selected these options for output:
 # short version of output
 output short
 # Proportions of any products will be expressed as Mole Fractions.
 # Heat will be expressed as siunits
 output siunits
 # Trace variable:
 output trace=1e-16
  
 # Input prepared by this script:/var/www/sites/cearun.grc.nasa.gov/cgi-bin/CEARU
 N/prepareInputFile.cgi
  
 ### IMPORTANT:  The following line is the end of your CEA input file!
 end




         THERMODYNAMIC EQUILIBRIUM COMBUSTION PROPERTIES AT ASSIGNED

                                     VOLUME

 CASE = test___________

             REACTANT                       MOLES         ENERGY      TEMP
                                                         KJ/KG-MOL      K
 FUEL        CH4                        100.0000000    -77028.260    300.000
 OXIDANT     Air                        100.0000000     -2566.042    300.000

 O/F=   11.49235  %FUEL=  8.004900  R,EQ.RATIO= 1.499240  PHI,EQ.RATIO= 1.500000

 THERMODYNAMIC PROPERTIES

 P, BAR            8.5647
 T, K             2323.62
 RHO, KG/CU M    1.1053 0
 H, KJ/KG          309.02
 U, KJ/KG         -465.86
 G, KJ/KG        -22933.4
 S, KJ/(KG)(K)    10.0027

 M, (1/n)          24.933
 (dLV/dLP)t      -1.00039
 (dLV/dLT)p        1.0100
 Cp, KJ/(KG)(K)    1.7046
 GAMMAs            1.2487
 SON VEL,M/SEC      983.7

 MOLE FRACTIONS

 *Ar             7.4160-3
 *C              1.896-14
 *CH             2.914-14
 CH2             8.294-13
 CH3             3.500-11
 CH2OH           1.441-12
 CH3O            1.993-13
 CH4             1.400-10
 CH3OH           9.209-13
 *CN             8.265-11
 *CO             8.9280-2
 *CO2            3.5382-2
 COOH            5.6235-8
 C2H2,acetylene  6.575-14
 CH2CO,ketene    7.377-13
 O(CH)2O         1.248-15
 HO(CO)2OH       1.409-16
 CH3CO,acetyl    1.549-16
 OCCN            2.208-14
 C2N2            2.711-15
 C2O             7.091-14
 C3O2            1.132-15
 *H              1.0333-3
 HCN             1.4080-7
 HCO             1.4736-7
 HCCO            2.411-14
 HNC             1.1950-8
 HNCO            9.0246-8
 HNO             1.7939-8
 HNO2            3.714-10
 HNO3            8.231-16
 HO2             5.0631-9
 *H2             7.6363-2
 HCHO,formaldehy 2.3801-8
 HCOOH           4.9551-8
 H2O             1.7172-1
 H2O2            4.3272-9
 *N              1.3540-8
 NCO             7.094-10
 *NH             2.2703-8
 NH2             9.5940-8
 NH3             1.8145-6
 NH2OH           1.536-11
 *NO             5.7952-5
 NO2             7.374-10
 *N2             6.1830-1
 N2O             8.6583-9
 NCN             2.499-15
 N2H2            7.271-12
 N2H4            1.506-15
 N3              1.126-13
 N3H             2.409-13
 *O              3.5362-6
 *OH             4.2917-4
 *O2             3.3118-6
 O3              3.670-15

  * THERMODYNAMIC PROPERTIES FITTED TO 20000.K

