
 *******************************************************************************

         NASA-GLENN CHEMICAL EQUILIBRIUM PROGRAM CEA2, MAY 21, 2004
                   BY  BONNIE MCBRIDE AND SANFORD GORDON
      REFS: NASA RP-1311, PART I, 1994 AND NASA RP-1311, PART II, 1996

 *******************************************************************************



 problem    phi,eq.ratio=2.1,2.2,2.3,2.4,2.5,2.6,2.7,2.8,2.9,3,3.1,3.2,3.3,3.4,3.
 5,3.6,
       tv   t,k=2500,  rho,kg/m**3=1.543,
 react
   fuel=C6H6 moles=1 t,k=300
   oxid=O2 moles=7.5 t,k=300
 output
      trace=1e-16 siunits short
 end




               THERMODYNAMIC EQUILIBRIUM PROPERTIES AT ASSIGNED

                            TEMPERATURE AND VOLUME

 CASE =                

             REACTANT                       MOLES         ENERGY      TEMP
                                                         KJ/KG-MOL      K
 FUEL        C6H6                         1.0000000     80537.766    300.000
 OXIDANT     O2                           7.5000000     -2439.995    300.000

 O/F=    1.46305  %FUEL= 40.600090  R,EQ.RATIO= 2.100000  PHI,EQ.RATIO= 2.100000

 THERMODYNAMIC PROPERTIES

 P, BAR            15.030
 T, K             2500.00
 RHO, KG/CU M    1.5430 0
 H, KJ/KG        -1274.60
 U, KJ/KG        -2248.65
 G, KJ/KG        -29174.0
 S, KJ/(KG)(K)    11.1598

 M, (1/n)          21.340
 (dLV/dLP)t      -1.00087
 (dLV/dLT)p        1.0194
 Cp, KJ/(KG)(K)    2.0117
 GAMMAs            1.2506
 SON VEL,M/SEC     1103.7

 MOLE FRACTIONS

 *C              6.903-12
 *CH             1.590-11
 CH2             4.916-10
 CH3             1.9918-8
 CH2OH           1.841-10
 CH3O            2.993-11
 CH4             8.5247-8
 CH3OH           1.408-10
 *CO             6.2814-1
 *CO2            3.7364-2
 COOH            2.6836-7
 *C2             1.166-15
 C2H             9.802-13
 C2H2,acetylene  1.0232-9
 C2H2,vinylidene 7.978-13
 CH2CO,ketene    1.6929-9
 O(CH)2O         6.701-13
 HO(CO)2OH       1.982-15
 C2H3,vinyl      3.016-13
 CH3CO,acetyl    9.781-13
 C2H4            2.750-12
 CH3CHO,ethanal  2.000-13
 CH3COOH         1.280-14
 C2H5            1.384-15
 C2H6            9.628-16
 C2O             1.033-10
 C3H3,2-propynl  6.294-16
 C3O2            7.896-12
 *H              3.1951-3
 HCO             4.2567-6
 HCCO            5.396-11
 HO2             1.1840-9
 *H2             2.4189-1
 HCHO,formaldehy 9.2962-7
 HCOOH           3.1412-7
 H2O             8.9128-2
 H2O2            1.3859-9
 *O              2.1083-6
 *OH             2.6867-4
 *O2             3.1855-7
 O3              2.549-16

  * THERMODYNAMIC PROPERTIES FITTED TO 20000.K









               THERMODYNAMIC EQUILIBRIUM PROPERTIES AT ASSIGNED

                            TEMPERATURE AND VOLUME

 CASE =                

             REACTANT                       MOLES         ENERGY      TEMP
                                                         KJ/KG-MOL      K
 FUEL        C6H6                         1.0000000     80537.766    300.000
 OXIDANT     O2                           7.5000000     -2439.995    300.000

 O/F=    1.39655  %FUEL= 41.726709  R,EQ.RATIO= 2.200000  PHI,EQ.RATIO= 2.200000

 THERMODYNAMIC PROPERTIES

 P, BAR            15.447
 T, K             2500.00
 RHO, KG/CU M    1.5430 0
 H, KJ/KG         -927.64
 U, KJ/KG        -1928.73
 G, KJ/KG        -29195.1
 S, KJ/(KG)(K)    11.3070

 M, (1/n)          20.764
 (dLV/dLP)t      -1.00088
 (dLV/dLT)p        1.0194
 Cp, KJ/(KG)(K)    2.0270
 GAMMAs            1.2569
 SON VEL,M/SEC     1121.7

 MOLE FRACTIONS

 *C              1.057-11
 *CH             2.586-11
 CH2             8.497-10
 CH3             3.6587-8
 CH2OH           2.252-10
 CH3O            3.660-11
 CH4             1.6640-7
 CH3OH           1.830-10
 *CO             6.4015-1
 *CO2            2.5354-2
 COOH            1.9351-7
 *C2             2.807-15
 C2H             2.508-12
 C2H2,acetylene  2.7820-9
 C2H2,vinylidene 2.169-12
 CH2CO,ketene    3.0648-9
 O(CH)2O         8.077-13
 HO(CO)2OH       1.059-15
 C2H3,vinyl      8.713-13
 CH3CO,acetyl    1.882-12
 C2H4            8.443-12
 C2H4O,ethylen-o 1.280-16
 CH3CHO,ethanal  4.089-13
 CH3COOH         1.743-14
 C2H5            4.517-15
 C2H6            3.339-15
 C2O             1.655-10
 C3H3,2-propynl  2.861-15
 C3H4,allene     1.790-16
 C3H4,propyne    4.046-16
 C3O2            1.326-11
 *H              3.3037-3
 HCO             4.6101-6
 HCCO            9.192-11
 HO2             5.428-10
 *H2             2.6579-1
 HCHO,formaldehy 1.0699-6
 HCOOH           2.4072-7
 H2O             6.5210-2
 H2O2            6.751-10
 *O              1.3659-6
 *OH             1.8498-4
 *O2             1.3741-7

  * THERMODYNAMIC PROPERTIES FITTED TO 20000.K









               THERMODYNAMIC EQUILIBRIUM PROPERTIES AT ASSIGNED

                            TEMPERATURE AND VOLUME

 CASE =                

             REACTANT                       MOLES         ENERGY      TEMP
                                                         KJ/KG-MOL      K
 FUEL        C6H6                         1.0000000     80537.766    300.000
 OXIDANT     O2                           7.5000000     -2439.995    300.000

 O/F=    1.33583  %FUEL= 42.811388  R,EQ.RATIO= 2.300000  PHI,EQ.RATIO= 2.300000

 THERMODYNAMIC PROPERTIES

 P, BAR            15.849
 T, K             2500.00
 RHO, KG/CU M    1.5430 0
 H, KJ/KG         -594.74
 U, KJ/KG        -1621.87
 G, KJ/KG        -29199.4
 S, KJ/(KG)(K)    11.4419

 M, (1/n)          20.237
 (dLV/dLP)t      -1.00088
 (dLV/dLT)p        1.0194
 Cp, KJ/(KG)(K)    2.0422
 GAMMAs            1.2629
 SON VEL,M/SEC     1138.9

 MOLE FRACTIONS

 *C              1.794-11
 *CH             4.635-11
 CH2             1.6073-9
 CH3             7.3056-8
 CH2OH           2.689-10
 CH3O            4.371-11
 CH4             3.5073-7
 CH3OH           2.307-10
 *CO             6.5009-1
 *CO2            1.5400-2
 COOH            1.2407-7
 *C2             8.304-15
 C2H             7.830-12
 C2H2,acetylene  9.1679-9
 C2H2,vinylidene 7.149-12
 CH2CO,ketene    6.0410-9
 O(CH)2O         9.523-13
 HO(CO)2OH       4.467-16
 C2H3,vinyl      3.031-12
 CH3CO,acetyl    3.915-12
 C2H4            3.100-11
 C2H4O,ethylen-o 2.811-16
 CH3CHO,ethanal  8.980-13
 CH3COOH         2.290-14
 C2H5            1.751-14
 C2H6            1.366-14
 C2O             2.928-10
 *C3             1.569-16
 C3H3,2-propynl  1.734-14
 C3H4,allene     1.145-15
 C3H4,propyne    2.588-15
 C3O2            2.444-11
 C4H2,butadiyne  1.195-16
 *H              3.3988-3
 HCO             4.9417-6
 HCCO            1.717-10
 HO2             1.998-10
 *H2             2.8863-1
 HCHO,formaldehy 1.2106-6
 HCOOH           1.6291-7
 H2O             4.2355-2
 H2O2            2.623-10
 *O              7.9626-7
 *OH             1.1382-4
 *O2             4.7913-8

  * THERMODYNAMIC PROPERTIES FITTED TO 20000.K









               THERMODYNAMIC EQUILIBRIUM PROPERTIES AT ASSIGNED

                            TEMPERATURE AND VOLUME

 CASE =                

             REACTANT                       MOLES         ENERGY      TEMP
                                                         KJ/KG-MOL      K
 FUEL        C6H6                         1.0000000     80537.766    300.000
 OXIDANT     O2                           7.5000000     -2439.995    300.000

 O/F=    1.28017  %FUEL= 43.856424  R,EQ.RATIO= 2.400000  PHI,EQ.RATIO= 2.400000

 THERMODYNAMIC PROPERTIES

 P, BAR            16.236
 T, K             2500.00
 RHO, KG/CU M    1.5430 0
 H, KJ/KG         -274.93
 U, KJ/KG        -1327.13
 G, KJ/KG        -29183.1
 S, KJ/(KG)(K)    11.5633

 M, (1/n)          19.755
 (dLV/dLP)t      -1.00089
 (dLV/dLT)p        1.0195
 Cp, KJ/(KG)(K)    2.0572
 GAMMAs            1.2686
 SON VEL,M/SEC     1155.4

 MOLE FRACTIONS

 *C              4.014-11
 *CH             1.088-10
 CH2             3.9613-9
 CH3             1.8897-7
 CH2OH           3.149-10
 CH3O            5.118-11
 CH4             9.5212-7
 CH3OH           2.835-10
 *CO             6.5842-1
 *CO2            7.0608-3
 COOH            5.9702-8
 *C2             4.258-14
 C2H             4.214-11
 C2H2,acetylene  5.1787-8
 C2H2,vinylidene 4.038-11
 CH2CO,ketene    1.5447-8
 O(CH)2O         1.102-12
 HO(CO)2OH       1.059-16
 C2H3,vinyl      1.797-11
 CH3CO,acetyl    1.051-11
 C2H4            1.929-10
 C2H4O,ethylen-o 7.918-16
 CH3CHO,ethanal  2.529-12
 CH3COOH         2.919-14
 C2H5            1.143-13
 C2H6            9.361-14
 C2H5OH          1.473-16
 C2O             6.798-10
 *C3             1.845-15
 C3H3,1-propynl  1.655-16
 C3H3,2-propynl  2.356-13
 C3H4,allene     1.633-14
 C3H4,propyne    3.691-14
 C3H4,cyclo-     1.974-16
 C3H5,allyl      2.489-16
 C3H6,propylene  1.434-16
 C3O2            5.886-11
 C4H2,butadiyne  3.546-15
 *H              3.4821-3
 HCO             5.2530-6
 HCCO            4.182-10
 HO2             4.194-11
 *H2             3.1036-1
 HCHO,formaldehy 1.3505-6
 HCOOH           8.2273-8
 H2O             2.0616-2
 H2O2            5.779-11
 *O              3.5186-7
 *OH             5.2788-5
 *O2             9.5843-9

  * THERMODYNAMIC PROPERTIES FITTED TO 20000.K









               THERMODYNAMIC EQUILIBRIUM PROPERTIES AT ASSIGNED

                            TEMPERATURE AND VOLUME

 CASE =                

             REACTANT                       MOLES         ENERGY      TEMP
                                                         KJ/KG-MOL      K
 FUEL        C6H6                         1.0000000     80537.766    300.000
 OXIDANT     O2                           7.5000000     -2439.995    300.000

 O/F=    1.22896  %FUEL= 44.863954  R,EQ.RATIO= 2.500000  PHI,EQ.RATIO= 2.500000

 THERMODYNAMIC PROPERTIES

 P, BAR            16.599
 T, K             2500.00
 RHO, KG/CU M    1.5430 0
 H, KJ/KG          31.365
 U, KJ/KG        -1044.41
 G, KJ/KG        -29124.5
 S, KJ/(KG)(K)    11.6623

 M, (1/n)          19.322
 (dLV/dLP)t      -1.00133
 (dLV/dLT)p        1.0207
 Cp, KJ/(KG)(K)    2.0750
 GAMMAs            1.2735
 SON VEL,M/SEC     1170.5

 MOLE FRACTIONS

 *C              2.3925-9
 *CH             6.7691-9
 CH2             2.5703-7
 CH3             1.2792-5
 CH2OH           3.613-10
 CH3O            5.873-11
 CH4             6.7246-5
 CH3OH           3.393-10
 *CO             6.6524-1
 *CO2            1.2091-4
 COOH            1.0666-9
 *C2             1.547-10
 C2H             1.5974-7
 C2H2,acetylene  2.0480-4
 C2H2,vinylidene 1.5969-7
 CH2CO,ketene    1.0354-6
 O(CH)2O         1.252-12
 C2H3,vinyl      7.4140-8
 CH3CO,acetyl    7.348-10
 C2H4            8.3030-7
 C2H4O,ethylen-o 5.777-14
 CH3CHO,ethanal  1.845-10
 CH3COOH         3.610-14
 C2H5            5.134-10
 C2H6            4.386-10
 C2H5OH          1.170-14
 CH3OCH3         1.624-16
 C2O             4.1858-8
 *C3             4.085-10
 C3H3,1-propynl  4.161-11
 C3H3,2-propynl  5.9235-8
 C3H4,allene     4.2841-9
 C3H4,propyne    9.6835-9
 C3H4,cyclo-     5.179-11
 C3H5,allyl      6.814-11
 C3H6,propylene  4.096-11
 C3H6,cyclo-     2.285-13
 C3H6O,acetone   2.689-15
 C3H6O,propanal  2.817-15
 C3H7,n-propyl   8.464-15
 C3H7,i-propyl   5.904-15
 C3H8            7.086-15
 C3O2            3.7442-9
 *C4             5.978-14
 C4H2,butadiyne  5.2090-8
 C4H4,1,3-cyclo- 9.049-14
 C4H6,butadiene  1.155-12
 C4H6,1butyne    1.708-13
 C4H6,2butyne    9.932-14
 C4H6,cyclo-     3.743-15
 C4H8,1-butene   6.080-16
 C4H8,cis2-buten 2.089-16
 C4H8,tr2-butene 2.360-16
 C4H8,isobutene  2.408-16
 *C5             6.889-14
 C5H6,1,3cyclo-  7.485-15
 C6H2            1.394-11
 C6H5,phenyl     5.232-16
 C6H6            4.178-15
 *H              3.5533-3
 HCO             5.5372-6
 HCCO            2.6869-8
 HO2             1.229-14
 *H2             3.3042-1
 HCHO,formaldehy 1.4853-6
 HCOOH           1.5335-9
 H2O             3.7201-4
 H2O2            1.767-14
 *O              5.8330-9
 *OH             9.1299-7
 *O2             2.693-12

  * THERMODYNAMIC PROPERTIES FITTED TO 20000.K









               THERMODYNAMIC EQUILIBRIUM PROPERTIES AT ASSIGNED

                            TEMPERATURE AND VOLUME

 CASE =                

             REACTANT                       MOLES         ENERGY      TEMP
                                                         KJ/KG-MOL      K
 FUEL        C6H6                         1.0000000     80537.766    300.000
 OXIDANT     O2                           7.5000000     -2439.995    300.000

 O/F=    1.18169  %FUEL= 45.835959  R,EQ.RATIO= 2.600000  PHI,EQ.RATIO= 2.600000

 THERMODYNAMIC PROPERTIES

 P, BAR            16.526
 T, K             2500.00
 RHO, KG/CU M    1.5430 0
 H, KJ/KG          186.29
 U, KJ/KG         -884.75
 G, KJ/KG        -28971.6
 S, KJ/(KG)(K)    11.6631

 M, (1/n)          19.407
 MW, MOL WT        19.052
 (dLV/dLP)t      -1.00134
 (dLV/dLT)p        1.0214
 Cp, KJ/(KG)(K)    2.2785
 GAMMAs            1.2420
 SON VEL,M/SEC     1153.3

 MOLE FRACTIONS

 *C              9.8784-9
 *CH             2.8096-8
 CH2             1.0725-6
 CH3             5.3658-5
 CH2OH           3.558-10
 CH3O            5.783-11
 CH4             2.8356-4
 CH3OH           3.359-10
 *CO             6.4484-1
 *CO2            2.7517-5
 COOH            2.440-10
 *C2             2.6746-9
 C2H             2.7762-6
 C2H2,acetylene  3.5781-3
 C2H2,vinylidene 2.7901-6
 CH2CO,ketene    4.2469-6
 O(CH)2O         1.206-12
 C2H3,vinyl      1.3022-6
 CH3CO,acetyl    3.0299-9
 C2H4            1.4660-5
 C2H4O,ethylen-o 2.395-13
 CH3CHO,ethanal  7.649-10
 CH3COOH         3.513-14
 C2H5            9.1128-9
 C2H6            7.8265-9
 C2H5OH          4.902-14
 CH3OCH3         6.802-16
 C2O             1.6990-7
 *C3             2.9570-8
 C3H3,1-propynl  3.0605-9
 C3H3,2-propynl  4.3563-6
 C3H4,allene     3.1673-7
 C3H4,propyne    7.1592-7
 C3H4,cyclo-     3.8287-9
 C3H5,allyl      5.0640-9
 C3H6,propylene  3.0601-9
 C3H6,cyclo-     1.707-11
 C3H6O,acetone   4.718-14
 C3H6O,propanal  4.941-14
 C3H7,n-propyl   6.357-13
 C3H7,i-propyl   4.434-13
 C3H8            5.350-13
 C3O2            1.4940-8
 *C4             1.812-11
 C4H2,butadiyne  1.5956-5
 C4H4,1,3-cyclo- 2.801-11
 C4H6,butadiene  3.614-10
 C4H6,1butyne    5.343-11
 C4H6,2butyne    3.107-11
 C4H6,cyclo-     1.171-12
 C4H8,1-butene   1.922-13
 C4H8,cis2-buten 6.606-14
 C4H8,tr2-butene 7.462-14
 C4H8,isobutene  7.613-14
 C4H8,cyclo-     1.418-16
 *C5             8.743-11
 C5H6,1,3cyclo-  9.804-12
 C5H8,cyclo-     1.732-15
 C6H2            7.4862-8
 C6H5,phenyl     2.855-12
 C6H5O,phenoxy   3.218-16
 C6H6            2.292-11
 C6H5OH,phenol   5.368-16
 C7H7,benzyl     2.063-14
 C7H8            6.729-15
 C8H8,styrene    1.256-15
 *H              3.5222-3
 HCO             5.3958-6
 HCCO            1.0963-7
 HO2             6.717-16
 *H2             3.2926-1
 HCHO,formaldehy 1.4550-6
 HCOOH           3.527-10
 H2O             8.7031-5
 H2O2            9.708-16
 *O              1.3503-9
 *OH             2.1247-7
 *O2             1.464-13
 C(gr)           1.8292-2

  * THERMODYNAMIC PROPERTIES FITTED TO 20000.K









               THERMODYNAMIC EQUILIBRIUM PROPERTIES AT ASSIGNED

                            TEMPERATURE AND VOLUME

 CASE =                

             REACTANT                       MOLES         ENERGY      TEMP
                                                         KJ/KG-MOL      K
 FUEL        C6H6                         1.0000000     80537.766    300.000
 OXIDANT     O2                           7.5000000     -2439.995    300.000

 O/F=    1.13793  %FUEL= 46.774286  R,EQ.RATIO= 2.700000  PHI,EQ.RATIO= 2.700000

 THERMODYNAMIC PROPERTIES

 P, BAR            16.454
 T, K             2500.00
 RHO, KG/CU M    1.5430 0
 H, KJ/KG          296.90
 U, KJ/KG         -769.45
 G, KJ/KG        -28820.3
 S, KJ/(KG)(K)    11.6469

 M, (1/n)          19.493
 MW, MOL WT        18.671
 (dLV/dLP)t      -1.00137
 (dLV/dLT)p        1.0217
 Cp, KJ/(KG)(K)    2.3093
 GAMMAs            1.2368
 SON VEL,M/SEC     1148.4

 MOLE FRACTIONS

 *C              9.6805-9
 *CH             2.7814-8
 CH2             1.0725-6
 CH3             5.4208-5
 CH2OH           3.532-10
 CH3O            5.741-11
 CH4             2.8938-4
 CH3OH           3.369-10
 *CO             6.2098-1
 *CO2            2.6039-5
 COOH            2.333-10
 *C2             2.6211-9
 C2H             2.7483-6
 C2H2,acetylene  3.5783-3
 C2H2,vinylidene 2.7902-6
 CH2CO,ketene    4.1735-6
 O(CH)2O         1.165-12
 C2H3,vinyl      1.3155-6
 CH3CO,acetyl    3.0079-9
 C2H4            1.4961-5
 C2H4O,ethylen-o 2.401-13
 CH3CHO,ethanal  7.671-10
 CH3COOH         3.462-14
 C2H5            9.3948-9
 C2H6            8.1509-9
 C2H5OH          5.017-14
 CH3OCH3         6.962-16
 C2O             1.6361-7
 *C3             2.8977-8
 C3H3,1-propynl  3.0918-9
 C3H3,2-propynl  4.4009-6
 C3H4,allene     3.2323-7
 C3H4,propyne    7.3062-7
 C3H4,cyclo-     3.9074-9
 C3H5,allyl      5.2207-9
 C3H6,propylene  3.1870-9
 C3H6,cyclo-     1.778-11
 C3H6O,acetone   4.828-14
 C3H6O,propanal  5.057-14
 C3H7,n-propyl   6.688-13
 C3H7,i-propyl   4.665-13
 C3H8            5.686-13
 C3O2            1.4138-8
 *C4             1.776-11
 C4H2,butadiyne  1.5957-5
 C4H4,1,3-cyclo- 2.859-11
 C4H6,butadiene  3.764-10
 C4H6,1butyne    5.564-11
 C4H6,2butyne    3.236-11
 C4H6,cyclo-     1.220-12
 C4H8,1-butene   2.043-13
 C4H8,cis2-buten 7.020-14
 C4H8,tr2-butene 7.931-14
 C4H8,isobutene  8.091-14
 C4H8,cyclo-     1.507-16
 *C5             8.568-11
 C5H6,1,3cyclo-  1.021-11
 C5H8,cyclo-     1.841-15
 C6H2            7.4866-8
 C6H5,phenyl     2.943-12
 C6H5O,phenoxy   3.260-16
 C6H6            2.387-11
 C6H5OH,phenol   5.494-16
 C7H7,benzyl     2.170-14
 C7H8            7.152-15
 C8H8,styrene    1.335-15
 *H              3.4868-3
 HCO             5.2490-6
 HCCO            1.0665-7
 HO2             6.421-16
 *H2             3.2927-1
 HCHO,formaldehy 1.4298-6
 HCOOH           3.406-10
 H2O             8.5527-5
 H2O2            9.375-16
 *O              1.3003-9
 *OH             2.0669-7
 *O2             1.385-13
 C(gr)           4.2172-2

  * THERMODYNAMIC PROPERTIES FITTED TO 20000.K









               THERMODYNAMIC EQUILIBRIUM PROPERTIES AT ASSIGNED

                            TEMPERATURE AND VOLUME

 CASE =                

             REACTANT                       MOLES         ENERGY      TEMP
                                                         KJ/KG-MOL      K
 FUEL        C6H6                         1.0000000     80537.766    300.000
 OXIDANT     O2                           7.5000000     -2439.995    300.000

 O/F=    1.09729  %FUEL= 47.680657  R,EQ.RATIO= 2.800000  PHI,EQ.RATIO= 2.800000

 THERMODYNAMIC PROPERTIES

 P, BAR            16.384
 T, K             2500.00
 RHO, KG/CU M    1.5430 0
 H, KJ/KG          403.74
 U, KJ/KG         -658.08
 G, KJ/KG        -28673.9
 S, KJ/(KG)(K)    11.6310

 M, (1/n)          19.576
 MW, MOL WT        18.316
 (dLV/dLP)t      -1.00140
 (dLV/dLT)p        1.0220
 Cp, KJ/(KG)(K)    2.3390
 GAMMAs            1.2320
 SON VEL,M/SEC     1143.7

 MOLE FRACTIONS

 *C              9.4968-9
 *CH             2.7549-8
 CH2             1.0726-6
 CH3             5.4733-5
 CH2OH           3.506-10
 CH3O            5.698-11
 CH4             2.9501-4
 CH3OH           3.376-10
 *CO             5.9882-1
 *CO2            2.4682-5
 COOH            2.233-10
 *C2             2.5713-9
 C2H             2.7222-6
 C2H2,acetylene  3.5785-3
 C2H2,vinylidene 2.7903-6
 CH2CO,ketene    4.1026-6
 O(CH)2O         1.125-12
 C2H3,vinyl      1.3283-6
 CH3CO,acetyl    2.9853-9
 C2H4            1.5252-5
 C2H4O,ethylen-o 2.406-13
 CH3CHO,ethanal  7.687-10
 CH3COOH         3.410-14
 C2H5            9.6699-9
 C2H6            8.4705-9
 C2H5OH          5.125-14
 CH3OCH3         7.111-16
 C2O             1.5777-7
 *C3             2.8427-8
 C3H3,1-propynl  3.1218-9
 C3H3,2-propynl  4.4436-6
 C3H4,allene     3.2952-7
 C3H4,propyne    7.4483-7
 C3H4,cyclo-     3.9833-9
 C3H5,allyl      5.3735-9
 C3H6,propylene  3.3120-9
 C3H6,cyclo-     1.848-11
 C3H6O,acetone   4.932-14
 C3H6O,propanal  5.166-14
 C3H7,n-propyl   7.017-13
 C3H7,i-propyl   4.895-13
 C3H8            6.024-13
 C3O2            1.3401-8
 *C4             1.742-11
 C4H2,butadiyne  1.5958-5
 C4H4,1,3-cyclo- 2.914-11
 C4H6,butadiene  3.911-10
 C4H6,1butyne    5.783-11
 C4H6,2butyne    3.363-11
 C4H6,cyclo-     1.267-12
 C4H8,1-butene   2.164-13
 C4H8,cis2-buten 7.437-14
 C4H8,tr2-butene 8.402-14
 C4H8,isobutene  8.572-14
 C4H8,cyclo-     1.596-16
 *C5             8.406-11
 C5H6,1,3cyclo-  1.061-11
 C5H8,cyclo-     1.950-15
 C6H2            7.4869-8
 C6H5,phenyl     3.029-12
 C6H5O,phenoxy   3.299-16
 C6H6            2.480-11
 C6H5OH,phenol   5.612-16
 C7H7,benzyl     2.277-14
 C7H8            7.577-15
 C8H8,styrene    1.415-15
 *H              3.4536-3
 HCO             5.1106-6
 HCCO            1.0384-7
 HO2             6.145-16
 *H2             3.2929-1
 HCHO,formaldehy 1.4056-6
 HCOOH           3.291-10
 H2O             8.4074-5
 H2O2            9.059-16
 *O              1.2539-9
 *OH             2.0124-7
 *O2             1.313-13
 C(gr)           6.4347-2

  * THERMODYNAMIC PROPERTIES FITTED TO 20000.K









               THERMODYNAMIC EQUILIBRIUM PROPERTIES AT ASSIGNED

                            TEMPERATURE AND VOLUME

 CASE =                

             REACTANT                       MOLES         ENERGY      TEMP
                                                         KJ/KG-MOL      K
 FUEL        C6H6                         1.0000000     80537.766    300.000
 OXIDANT     O2                           7.5000000     -2439.995    300.000

 O/F=    1.05945  %FUEL= 48.556675  R,EQ.RATIO= 2.900000  PHI,EQ.RATIO= 2.900000

 THERMODYNAMIC PROPERTIES

 P, BAR            16.316
 T, K             2500.00
 RHO, KG/CU M    1.5430 0
 H, KJ/KG          506.99
 U, KJ/KG         -550.44
 G, KJ/KG        -28532.0
 S, KJ/(KG)(K)    11.6156

 M, (1/n)          19.657
 MW, MOL WT        17.987
 (dLV/dLP)t      -1.00142
 (dLV/dLT)p        1.0224
 Cp, KJ/(KG)(K)    2.3677
 GAMMAs            1.2274
 SON VEL,M/SEC     1139.3

 MOLE FRACTIONS

 *C              9.3257-9
 *CH             2.7301-8
 CH2             1.0726-6
 CH3             5.5237-5
 CH2OH           3.479-10
 CH3O            5.654-11
 CH4             3.0044-4
 CH3OH           3.381-10
 *CO             5.7819-1
 *CO2            2.3433-5
 COOH            2.139-10
 *C2             2.5250-9
 C2H             2.6976-6
 C2H2,acetylene  3.5786-3
 C2H2,vinylidene 2.7905-6
 CH2CO,ketene    4.0341-6
 O(CH)2O         1.088-12
 C2H3,vinyl      1.3405-6
 CH3CO,acetyl    2.9623-9
 C2H4            1.5533-5
 C2H4O,ethylen-o 2.410-13
 CH3CHO,ethanal  7.697-10
 CH3COOH         3.358-14
 C2H5            9.9382-9
 C2H6            8.7853-9
 C2H5OH          5.226-14
 CH3OCH3         7.252-16
 C2O             1.5233-7
 *C3             2.7915-8
 C3H3,1-propynl  3.1505-9
 C3H3,2-propynl  4.4845-6
 C3H4,allene     3.3559-7
 C3H4,propyne    7.5855-7
 C3H4,cyclo-     4.0567-9
 C3H5,allyl      5.5226-9
 C3H6,propylene  3.4350-9
 C3H6,cyclo-     1.917-11
 C3H6O,acetone   5.029-14
 C3H6O,propanal  5.268-14
 C3H7,n-propyl   7.345-13
 C3H7,i-propyl   5.123-13
 C3H8            6.363-13
 C3O2            1.2722-8
 *C4             1.711-11
 C4H2,butadiyne  1.5959-5
 C4H4,1,3-cyclo- 2.968-11
 C4H6,butadiene  4.057-10
 C4H6,1butyne    5.998-11
 C4H6,2butyne    3.488-11
 C4H6,cyclo-     1.315-12
 C4H8,1-butene   2.286-13
 C4H8,cis2-buten 7.855-14
 C4H8,tr2-butene 8.874-14
 C4H8,isobutene  9.054-14
 C4H8,cyclo-     1.686-16
 *C5             8.254-11
 C5H6,1,3cyclo-  1.101-11
 C5H8,cyclo-     2.059-15
 C6H2            7.4872-8
 C6H5,phenyl     3.114-12
 C6H5O,phenoxy   3.333-16
 C6H6            2.572-11
 C6H5OH,phenol   5.723-16
 C7H7,benzyl     2.383-14
 C7H8            8.003-15
 C8H8,styrene    1.494-15
 *H              3.4225-3
 HCO             4.9796-6
 HCCO            1.0118-7
 HO2             5.888-16
 *H2             3.2930-1
 HCHO,formaldehy 1.3821-6
 HCOOH           3.182-10
 H2O             8.2670-5
 H2O2            8.758-16
 *O              1.2107-9
 *OH             1.9609-7
 *O2             1.246-13
 C(gr)           8.4994-2

  * THERMODYNAMIC PROPERTIES FITTED TO 20000.K









               THERMODYNAMIC EQUILIBRIUM PROPERTIES AT ASSIGNED

                            TEMPERATURE AND VOLUME

 CASE =                

             REACTANT                       MOLES         ENERGY      TEMP
                                                         KJ/KG-MOL      K
 FUEL        C6H6                         1.0000000     80537.766    300.000
 OXIDANT     O2                           7.5000000     -2439.995    300.000

 O/F=    1.02413  %FUEL= 49.403841  R,EQ.RATIO= 3.000000  PHI,EQ.RATIO= 3.000000

 THERMODYNAMIC PROPERTIES

 P, BAR            16.251
 T, K             2500.00
 RHO, KG/CU M    1.5430 0
 H, KJ/KG          606.84
 U, KJ/KG         -446.36
 G, KJ/KG        -28394.5
 S, KJ/(KG)(K)    11.6005

 M, (1/n)          19.736
 MW, MOL WT        17.679
 (dLV/dLP)t      -1.00145
 (dLV/dLT)p        1.0227
 Cp, KJ/(KG)(K)    2.3955
 GAMMAs            1.2232
 SON VEL,M/SEC     1135.0

 MOLE FRACTIONS

 *C              9.1660-9
 *CH             2.7066-8
 CH2             1.0727-6
 CH3             5.5719-5
 CH2OH           3.451-10
 CH3O            5.610-11
 CH4             3.0570-4
 CH3OH           3.383-10
 *CO             5.5893-1
 *CO2            2.2279-5
 COOH            2.051-10
 *C2             2.4818-9
 C2H             2.6745-6
 C2H2,acetylene  3.5787-3
 C2H2,vinylidene 2.7906-6
 CH2CO,ketene    3.9678-6
 O(CH)2O         1.052-12
 C2H3,vinyl      1.3522-6
 CH3CO,acetyl    2.9390-9
 C2H4            1.5805-5
 C2H4O,ethylen-o 2.411-13
 CH3CHO,ethanal  7.703-10
 CH3COOH         3.305-14
 C2H5            1.0200-8
 C2H6            9.0951-9
 C2H5OH          5.321-14
 CH3OCH3         7.384-16
 C2O             1.4726-7
 *C3             2.7437-8
 C3H3,1-propynl  3.1780-9
 C3H3,2-propynl  4.5236-6
 C3H4,allene     3.4146-7
 C3H4,propyne    7.7183-7
 C3H4,cyclo-     4.1277-9
 C3H5,allyl      5.6681-9
 C3H6,propylene  3.5562-9
 C3H6,cyclo-     1.984-11
 C3H6O,acetone   5.121-14
 C3H6O,propanal  5.364-14
 C3H7,n-propyl   7.670-13
 C3H7,i-propyl   5.350-13
 C3H8            6.702-13
 C3O2            1.2096-8
 *C4             1.681-11
 C4H2,butadiyne  1.5959-5
 C4H4,1,3-cyclo- 3.020-11
 C4H6,butadiene  4.200-10
 C4H6,1butyne    6.209-11
 C4H6,2butyne    3.611-11
 C4H6,cyclo-     1.361-12
 C4H8,1-butene   2.408-13
 C4H8,cis2-buten 8.275-14
 C4H8,tr2-butene 9.348-14
 C4H8,isobutene  9.537-14
 C4H8,cyclo-     1.776-16
 C4H9,n-butyl    1.038-16
 *C5             8.113-11
 C5H6,1,3cyclo-  1.139-11
 C5H8,cyclo-     2.169-15
 C6H2            7.4875-8
 C6H5,phenyl     3.196-12
 C6H5O,phenoxy   3.365-16
 C6H6            2.663-11
 C6H5OH,phenol   5.827-16
 C7H7,benzyl     2.488-14
 C7H8            8.430-15
 C8H8,styrene    1.574-15
 *H              3.3931-3
 HCO             4.8556-6
 HCCO            9.8656-8
 HO2             5.646-16
 *H2             3.2931-1
 HCHO,formaldehy 1.3594-6
 HCOOH           3.078-10
 H2O             8.1312-5
 H2O2            8.472-16
 *O              1.1704-9
 *OH             1.9120-7
 *O2             1.185-13
 C(gr)           1.0427-1

  * THERMODYNAMIC PROPERTIES FITTED TO 20000.K









               THERMODYNAMIC EQUILIBRIUM PROPERTIES AT ASSIGNED

                            TEMPERATURE AND VOLUME

 CASE =                

             REACTANT                       MOLES         ENERGY      TEMP
                                                         KJ/KG-MOL      K
 FUEL        C6H6                         1.0000000     80537.766    300.000
 OXIDANT     O2                           7.5000000     -2439.995    300.000

 O/F=    0.99110  %FUEL= 50.223557  R,EQ.RATIO= 3.100000  PHI,EQ.RATIO= 3.100000

 THERMODYNAMIC PROPERTIES

 P, BAR            16.188
 T, K             2500.00
 RHO, KG/CU M    1.5430 0
 H, KJ/KG          703.45
 U, KJ/KG         -345.65
 G, KJ/KG        -28261.2
 S, KJ/(KG)(K)    11.5858

 M, (1/n)          19.814
 MW, MOL WT        17.390
 (dLV/dLP)t      -1.00148
 (dLV/dLT)p        1.0230
 Cp, KJ/(KG)(K)    2.4223
 GAMMAs            1.2192
 SON VEL,M/SEC     1131.0

 MOLE FRACTIONS

 *C              9.0167-9
 *CH             2.6845-8
 CH2             1.0727-6
 CH3             5.6182-5
 CH2OH           3.424-10
 CH3O            5.565-11
 CH4             3.1079-4
 CH3OH           3.384-10
 *CO             5.4091-1
 *CO2            2.1212-5
 COOH            1.969-10
 *C2             2.4413-9
 C2H             2.6526-6
 C2H2,acetylene  3.5789-3
 C2H2,vinylidene 2.7907-6
 CH2CO,ketene    3.9037-6
 O(CH)2O         1.019-12
 C2H3,vinyl      1.3634-6
 CH3CO,acetyl    2.9154-9
 C2H4            1.6068-5
 C2H4O,ethylen-o 2.412-13
 CH3CHO,ethanal  7.705-10
 CH3COOH         3.252-14
 C2H5            1.0456-8
 C2H6            9.4000-9
 C2H5OH          5.410-14
 CH3OCH3         7.508-16
 C2O             1.4251-7
 *C3             2.6990-8
 C3H3,1-propynl  3.2044-9
 C3H3,2-propynl  4.5612-6
 C3H4,allene     3.4715-7
 C3H4,propyne    7.8467-7
 C3H4,cyclo-     4.1964-9
 C3H5,allyl      5.8101-9
 C3H6,propylene  3.6754-9
 C3H6,cyclo-     2.051-11
 C3H6O,acetone   5.207-14
 C3H6O,propanal  5.454-14
 C3H7,n-propyl   7.993-13
 C3H7,i-propyl   5.575-13
 C3H8            7.042-13
 C3O2            1.1517-8
 *C4             1.654-11
 C4H2,butadiyne  1.5960-5
 C4H4,1,3-cyclo- 3.070-11
 C4H6,butadiene  4.341-10
 C4H6,1butyne    6.417-11
 C4H6,2butyne    3.732-11
 C4H6,cyclo-     1.407-12
 C4H8,1-butene   2.530-13
 C4H8,cis2-buten 8.694-14
 C4H8,tr2-butene 9.821-14
 C4H8,isobutene  1.002-13
 C4H8,cyclo-     1.866-16
 C4H9,n-butyl    1.099-16
 *C5             7.981-11
 C5H6,1,3cyclo-  1.178-11
 C5H8,cyclo-     2.279-15
 C6H2            7.4878-8
 C6H5,phenyl     3.276-12
 C6H5O,phenoxy   3.393-16
 C6H6            2.752-11
 C6H5OH,phenol   5.925-16
 C7H7,benzyl     2.593-14
 C7H8            8.857-15
 C8H8,styrene    1.654-15
 *H              3.3654-3
 HCO             4.7379-6
 HCCO            9.6266-8
 HO2             5.420-16
 *H2             3.2933-1
 HCHO,formaldehy 1.3374-6
 HCOOH           2.979-10
 H2O             7.9997-5
 H2O2            8.200-16
 *O              1.1327-9
 *OH             1.8657-7
 *O2             1.128-13
 C(gr)           1.2229-1

  * THERMODYNAMIC PROPERTIES FITTED TO 20000.K









               THERMODYNAMIC EQUILIBRIUM PROPERTIES AT ASSIGNED

                            TEMPERATURE AND VOLUME

 CASE =                

             REACTANT                       MOLES         ENERGY      TEMP
                                                         KJ/KG-MOL      K
 FUEL        C6H6                         1.0000000     80537.766    300.000
 OXIDANT     O2                           7.5000000     -2439.995    300.000

 O/F=    0.96013  %FUEL= 51.017135  R,EQ.RATIO= 3.200000  PHI,EQ.RATIO= 3.200000

 THERMODYNAMIC PROPERTIES

 P, BAR            16.126
 T, K             2500.00
 RHO, KG/CU M    1.5430 0
 H, KJ/KG          796.97
 U, KJ/KG         -248.15
 G, KJ/KG        -28131.8
 S, KJ/(KG)(K)    11.5715

 M, (1/n)          19.889
 MW, MOL WT        17.120
 (dLV/dLP)t      -1.00150
 (dLV/dLT)p        1.0233
 Cp, KJ/(KG)(K)    2.4483
 GAMMAs            1.2155
 SON VEL,M/SEC     1127.1

 MOLE FRACTIONS

 *C              8.8766-9
 *CH             2.6637-8
 CH2             1.0727-6
 CH3             5.6626-5
 CH2OH           3.396-10
 CH3O            5.519-11
 CH4             3.1572-4
 CH3OH           3.382-10
 *CO             5.2402-1
 *CO2            2.0222-5
 COOH            1.892-10
 *C2             2.4034-9
 C2H             2.6320-6
 C2H2,acetylene  3.5790-3
 C2H2,vinylidene 2.7908-6
 CH2CO,ketene    3.8416-6
 O(CH)2O         9.865-13
 C2H3,vinyl      1.3742-6
 CH3CO,acetyl    2.8916-9
 C2H4            1.6323-5
 C2H4O,ethylen-o 2.411-13
 CH3CHO,ethanal  7.702-10
 CH3COOH         3.199-14
 C2H5            1.0705-8
 C2H6            9.6999-9
 C2H5OH          5.494-14
 CH3OCH3         7.624-16
 C2O             1.3806-7
 *C3             2.6571-8
 C3H3,1-propynl  3.2298-9
 C3H3,2-propynl  4.5973-6
 C3H4,allene     3.5265-7
 C3H4,propyne    7.9711-7
 C3H4,cyclo-     4.2629-9
 C3H5,allyl      5.9487-9
 C3H6,propylene  3.7927-9
 C3H6,cyclo-     2.116-11
 C3H6O,acetone   5.287-14
 C3H6O,propanal  5.538-14
 C3H7,n-propyl   8.313-13
 C3H7,i-propyl   5.798-13
 C3H8            7.381-13
 C3O2            1.0979-8
 *C4             1.628-11
 C4H2,butadiyne  1.5960-5
 C4H4,1,3-cyclo- 3.119-11
 C4H6,butadiene  4.479-10
 C4H6,1butyne    6.622-11
 C4H6,2butyne    3.851-11
 C4H6,cyclo-     1.451-12
 C4H8,1-butene   2.652-13
 C4H8,cis2-buten 9.113-14
 C4H8,tr2-butene 1.030-13
 C4H8,isobutene  1.050-13
 C4H8,cyclo-     1.956-16
 C4H9,n-butyl    1.161-16
 *C5             7.857-11
 C5H6,1,3cyclo-  1.215-11
 C5H8,cyclo-     2.389-15
 C6H2            7.4881-8
 C6H5,phenyl     3.354-12
 C6H5O,phenoxy   3.419-16
 C6H6            2.840-11
 C6H5OH,phenol   6.017-16
 C7H7,benzyl     2.697-14
 C7H8            9.284-15
 C8H8,styrene    1.733-15
 *H              3.3392-3
 HCO             4.6261-6
 HCCO            9.3994-8
 HO2             5.208-16
 *H2             3.2934-1
 HCHO,formaldehy 1.3161-6
 HCOOH           2.885-10
 H2O             7.8725-5
 H2O2            7.941-16
 *O              1.0973-9
 *OH             1.8217-7
 *O2             1.076-13
 C(gr)           1.3920-1

  * THERMODYNAMIC PROPERTIES FITTED TO 20000.K









               THERMODYNAMIC EQUILIBRIUM PROPERTIES AT ASSIGNED

                            TEMPERATURE AND VOLUME

 CASE =                

             REACTANT                       MOLES         ENERGY      TEMP
                                                         KJ/KG-MOL      K
 FUEL        C6H6                         1.0000000     80537.766    300.000
 OXIDANT     O2                           7.5000000     -2439.995    300.000

 O/F=    0.93103  %FUEL= 51.785807  R,EQ.RATIO= 3.300000  PHI,EQ.RATIO= 3.300000

 THERMODYNAMIC PROPERTIES

 P, BAR            16.067
 T, K             2500.00
 RHO, KG/CU M    1.5430 0
 H, KJ/KG          887.56
 U, KJ/KG         -153.71
 G, KJ/KG        -28006.3
 S, KJ/(KG)(K)    11.5575

 M, (1/n)          19.962
 MW, MOL WT        16.867
 (dLV/dLP)t      -1.00152
 (dLV/dLT)p        1.0235
 Cp, KJ/(KG)(K)    2.4735
 GAMMAs            1.2120
 SON VEL,M/SEC     1123.4

 MOLE FRACTIONS

 *C              8.7451-9
 *CH             2.6439-8
 CH2             1.0728-6
 CH3             5.7053-5
 CH2OH           3.368-10
 CH3O            5.474-11
 CH4             3.2049-4
 CH3OH           3.380-10
 *CO             5.0815-1
 *CO2            1.9302-5
 COOH            1.819-10
 *C2             2.3678-9
 C2H             2.6125-6
 C2H2,acetylene  3.5791-3
 C2H2,vinylidene 2.7909-6
 CH2CO,ketene    3.7814-6
 O(CH)2O         9.558-13
 C2H3,vinyl      1.3846-6
 CH3CO,acetyl    2.8677-9
 C2H4            1.6569-5
 C2H4O,ethylen-o 2.409-13
 CH3CHO,ethanal  7.696-10
 CH3COOH         3.146-14
 C2H5            1.0948-8
 C2H6            9.9949-9
 C2H5OH          5.572-14
 CH3OCH3         7.733-16
 C2O             1.3388-7
 *C3             2.6177-8
 C3H3,1-propynl  3.2541-9
 C3H3,2-propynl  4.6319-6
 C3H4,allene     3.5798-7
 C3H4,propyne    8.0915-7
 C3H4,cyclo-     4.3273-9
 C3H5,allyl      6.0839-9
 C3H6,propylene  3.9080-9
 C3H6,cyclo-     2.180-11
 C3H6O,acetone   5.363-14
 C3H6O,propanal  5.617-14
 C3H7,n-propyl   8.630-13
 C3H7,i-propyl   6.019-13
 C3H8            7.721-13
 C3O2            1.0479-8
 *C4             1.604-11
 C4H2,butadiyne  1.5961-5
 C4H4,1,3-cyclo- 3.166-11
 C4H6,butadiene  4.615-10
 C4H6,1butyne    6.823-11
 C4H6,2butyne    3.968-11
 C4H6,cyclo-     1.496-12
 C4H8,1-butene   2.774-13
 C4H8,cis2-buten 9.532-14
 C4H8,tr2-butene 1.077-13
 C4H8,isobutene  1.099-13
 C4H8,cyclo-     2.045-16
 C4H9,n-butyl    1.224-16
 *C5             7.740-11
 C5H6,1,3cyclo-  1.252-11
 C5H8,cyclo-     2.499-15
 C6H2            7.4883-8
 C6H5,phenyl     3.430-12
 C6H5O,phenoxy   3.442-16
 C6H6            2.926-11
 C6H5OH,phenol   6.102-16
 C7H7,benzyl     2.800-14
 C7H8            9.710-15
 C8H8,styrene    1.813-15
 *H              3.3145-3
 HCO             4.5197-6
 HCCO            9.1832-8
 HO2             5.008-16
 *H2             3.2935-1
 HCHO,formaldehy 1.2955-6
 HCOOH           2.795-10
 H2O             7.7492-5
 H2O2            7.694-16
 *O              1.0641-9
 *OH             1.7798-7
 *O2             1.027-13
 C(gr)           1.5508-1

  * THERMODYNAMIC PROPERTIES FITTED TO 20000.K









               THERMODYNAMIC EQUILIBRIUM PROPERTIES AT ASSIGNED

                            TEMPERATURE AND VOLUME

 CASE =                

             REACTANT                       MOLES         ENERGY      TEMP
                                                         KJ/KG-MOL      K
 FUEL        C6H6                         1.0000000     80537.766    300.000
 OXIDANT     O2                           7.5000000     -2439.995    300.000

 O/F=    0.90365  %FUEL= 52.530727  R,EQ.RATIO= 3.400000  PHI,EQ.RATIO= 3.400000

 THERMODYNAMIC PROPERTIES

 P, BAR            16.009
 T, K             2500.00
 RHO, KG/CU M    1.5430 0
 H, KJ/KG          975.35
 U, KJ/KG         -62.199
 G, KJ/KG        -27884.4
 S, KJ/(KG)(K)    11.5439

 M, (1/n)          20.034
 MW, MOL WT        16.628
 (dLV/dLP)t      -1.00155
 (dLV/dLT)p        1.0238
 Cp, KJ/(KG)(K)    2.4978
 GAMMAs            1.2086
 SON VEL,M/SEC     1119.8

 MOLE FRACTIONS

 *C              8.6213-9
 *CH             2.6251-8
 CH2             1.0728-6
 CH3             5.7464-5
 CH2OH           3.339-10
 CH3O            5.428-11
 CH4             3.2511-4
 CH3OH           3.375-10
 *CO             4.9322-1
 *CO2            1.8445-5
 COOH            1.751-10
 *C2             2.3343-9
 C2H             2.5939-6
 C2H2,acetylene  3.5792-3
 C2H2,vinylidene 2.7909-6
 CH2CO,ketene    3.7231-6
 O(CH)2O         9.265-13
 C2H3,vinyl      1.3945-6
 CH3CO,acetyl    2.8437-9
 C2H4            1.6808-5
 C2H4O,ethylen-o 2.406-13
 CH3CHO,ethanal  7.686-10
 CH3COOH         3.094-14
 C2H5            1.1186-8
 C2H6            1.0285-8
 C2H5OH          5.645-14
 CH3OCH3         7.834-16
 C2O             1.2995-7
 *C3             2.5807-8
 C3H3,1-propynl  3.2775-9
 C3H3,2-propynl  4.6653-6
 C3H4,allene     3.6314-7
 C3H4,propyne    8.2082-7
 C3H4,cyclo-     4.3898-9
 C3H5,allyl      6.2159-9
 C3H6,propylene  4.0214-9
 C3H6,cyclo-     2.244-11
 C3H6O,acetone   5.433-14
 C3H6O,propanal  5.691-14
 C3H7,n-propyl   8.944-13
 C3H7,i-propyl   6.238-13
 C3H8            8.059-13
 C3O2            1.0014-8
 *C4             1.581-11
 C4H2,butadiyne  1.5961-5
 C4H4,1,3-cyclo- 3.212-11
 C4H6,butadiene  4.749-10
 C4H6,1butyne    7.021-11
 C4H6,2butyne    4.083-11
 C4H6,cyclo-     1.539-12
 C4H8,1-butene   2.895-13
 C4H8,cis2-buten 9.950-14
 C4H8,tr2-butene 1.124-13
 C4H8,isobutene  1.147-13
 C4H8,cyclo-     2.135-16
 C4H9,n-butyl    1.287-16
 *C5             7.631-11
 C5H6,1,3cyclo-  1.288-11
 C5H8,cyclo-     2.608-15
 C6H2            7.4886-8
 C6H5,phenyl     3.504-12
 C6H5O,phenoxy   3.462-16
 C6H6            3.011-11
 C6H5OH,phenol   6.182-16
 C7H7,benzyl     2.902-14
 C7H8            1.014-14
 C8H8,styrene    1.892-15
 *H              3.2910-3
 HCO             4.4183-6
 HCCO            8.9772-8
 HO2             4.820-16
 *H2             3.2936-1
 HCHO,formaldehy 1.2755-6
 HCOOH           2.710-10
 H2O             7.6297-5
 H2O2            7.458-16
 *O              1.0328-9
 *OH             1.7398-7
 *O2             9.811-14
 C(gr)           1.7002-1

  * THERMODYNAMIC PROPERTIES FITTED TO 20000.K









               THERMODYNAMIC EQUILIBRIUM PROPERTIES AT ASSIGNED

                            TEMPERATURE AND VOLUME

 CASE =                

             REACTANT                       MOLES         ENERGY      TEMP
                                                         KJ/KG-MOL      K
 FUEL        C6H6                         1.0000000     80537.766    300.000
 OXIDANT     O2                           7.5000000     -2439.995    300.000

 O/F=    0.87783  %FUEL= 53.252978  R,EQ.RATIO= 3.500000  PHI,EQ.RATIO= 3.500000

 THERMODYNAMIC PROPERTIES

 P, BAR            15.954
 T, K             2500.00
 RHO, KG/CU M    1.5430 0
 H, KJ/KG         1060.46
 U, KJ/KG          26.528
 G, KJ/KG        -27765.9
 S, KJ/(KG)(K)    11.5306

 M, (1/n)          20.104
 MW, MOL WT        16.403
 (dLV/dLP)t      -1.00157
 (dLV/dLT)p        1.0241
 Cp, KJ/(KG)(K)    2.5215
 GAMMAs            1.2055
 SON VEL,M/SEC     1116.4

 MOLE FRACTIONS

 *C              8.5045-9
 *CH             2.6073-8
 CH2             1.0728-6
 CH3             5.7860-5
 CH2OH           3.311-10
 CH3O            5.382-11
 CH4             3.2959-4
 CH3OH           3.370-10
 *CO             4.7913-1
 *CO2            1.7645-5
 COOH            1.687-10
 *C2             2.3026-9
 C2H             2.5764-6
 C2H2,acetylene  3.5793-3
 C2H2,vinylidene 2.7910-6
 CH2CO,ketene    3.6666-6
 O(CH)2O         8.985-13
 C2H3,vinyl      1.4041-6
 CH3CO,acetyl    2.8197-9
 C2H4            1.7040-5
 C2H4O,ethylen-o 2.402-13
 CH3CHO,ethanal  7.673-10
 CH3COOH         3.042-14
 C2H5            1.1418-8
 C2H6            1.0570-8
 C2H5OH          5.714-14
 CH3OCH3         7.929-16
 C2O             1.2624-7
 *C3             2.5457-8
 C3H3,1-propynl  3.3001-9
 C3H3,2-propynl  4.6974-6
 C3H4,allene     3.6814-7
 C3H4,propyne    8.3214-7
 C3H4,cyclo-     4.4503-9
 C3H5,allyl      6.3448-9
 C3H6,propylene  4.1330-9
 C3H6,cyclo-     2.306-11
 C3H6O,acetone   5.499-14
 C3H6O,propanal  5.760-14
 C3H7,n-propyl   9.255-13
 C3H7,i-propyl   6.455-13
 C3H8            8.396-13
 C3O2            9.5803-9
 *C4             1.560-11
 C4H2,butadiyne  1.5962-5
 C4H4,1,3-cyclo- 3.256-11
 C4H6,butadiene  4.881-10
 C4H6,1butyne    7.216-11
 C4H6,2butyne    4.196-11
 C4H6,cyclo-     1.582-12
 C4H8,1-butene   3.016-13
 C4H8,cis2-buten 1.037-13
 C4H8,tr2-butene 1.171-13
 C4H8,isobutene  1.195-13
 C4H8,cyclo-     2.225-16
 C4H9,n-butyl    1.350-16
 *C5             7.527-11
 C5H6,1,3cyclo-  1.324-11
 C5H8,cyclo-     2.718-15
 C6H2            7.4888-8
 C6H5,phenyl     3.577-12
 C6H5O,phenoxy   3.480-16
 C6H6            3.095-11
 C6H5OH,phenol   6.257-16
 C7H7,benzyl     3.003-14
 C7H8            1.056-14
 C8H8,styrene    1.972-15
 *H              3.2686-3
 HCO             4.3216-6
 HCCO            8.7807-8
 HO2             4.643-16
 *H2             3.2937-1
 HCHO,formaldehy 1.2561-6
 HCOOH           2.628-10
 H2O             7.5138-5
 H2O2            7.233-16
 *O              1.0033-9
 *OH             1.7018-7
 *O2             9.386-14
 C(gr)           1.8411-1

  * THERMODYNAMIC PROPERTIES FITTED TO 20000.K









               THERMODYNAMIC EQUILIBRIUM PROPERTIES AT ASSIGNED

                            TEMPERATURE AND VOLUME

 CASE =                

             REACTANT                       MOLES         ENERGY      TEMP
                                                         KJ/KG-MOL      K
 FUEL        C6H6                         1.0000000     80537.766    300.000
 OXIDANT     O2                           7.5000000     -2439.995    300.000

 O/F=    0.85345  %FUEL= 53.953581  R,EQ.RATIO= 3.600000  PHI,EQ.RATIO= 3.600000

 THERMODYNAMIC PROPERTIES

 P, BAR            15.899
 T, K             2500.00
 RHO, KG/CU M    1.5430 0
 H, KJ/KG         1143.02
 U, KJ/KG          112.59
 G, KJ/KG        -27650.8
 S, KJ/(KG)(K)    11.5175

 M, (1/n)          20.173
 MW, MOL WT        16.190
 (dLV/dLP)t      -1.00159
 (dLV/dLT)p        1.0243
 Cp, KJ/(KG)(K)    2.5444
 GAMMAs            1.2025
 SON VEL,M/SEC     1113.1

 MOLE FRACTIONS

 *C              8.3942-9
 *CH             2.5904-8
 CH2             1.0729-6
 CH3             5.8241-5
 CH2OH           3.283-10
 CH3O            5.336-11
 CH4             3.3394-4
 CH3OH           3.363-10
 *CO             4.6583-1
 *CO2            1.6899-5
 COOH            1.626-10
 *C2             2.2728-9
 C2H             2.5596-6
 C2H2,acetylene  3.5794-3
 C2H2,vinylidene 2.7911-6
 CH2CO,ketene    3.6117-6
 O(CH)2O         8.718-13
 C2H3,vinyl      1.4134-6
 CH3CO,acetyl    2.7957-9
 C2H4            1.7265-5
 C2H4O,ethylen-o 2.397-13
 CH3CHO,ethanal  7.658-10
 CH3COOH         2.990-14
 C2H5            1.1644-8
 C2H6            1.0851-8
 C2H5OH          5.777-14
 CH3OCH3         8.017-16
 C2O             1.2273-7
 *C3             2.5127-8
 C3H3,1-propynl  3.3218-9
 C3H3,2-propynl  4.7284-6
 C3H4,allene     3.7300-7
 C3H4,propyne    8.4312-7
 C3H4,cyclo-     4.5090-9
 C3H5,allyl      6.4706-9
 C3H6,propylene  4.2426-9
 C3H6,cyclo-     2.367-11
 C3H6O,acetone   5.560-14
 C3H6O,propanal  5.824-14
 C3H7,n-propyl   9.563-13
 C3H7,i-propyl   6.670-13
 C3H8            8.733-13
 C3O2            9.1748-9
 *C4             1.540-11
 C4H2,butadiyne  1.5962-5
 C4H4,1,3-cyclo- 3.299-11
 C4H6,butadiene  5.010-10
 C4H6,1butyne    7.407-11
 C4H6,2butyne    4.308-11
 C4H6,cyclo-     1.624-12
 C4H8,1-butene   3.137-13
 C4H8,cis2-buten 1.078-13
 C4H8,tr2-butene 1.218-13
 C4H8,isobutene  1.243-13
 C4H8,cyclo-     2.314-16
 C4H9,n-butyl    1.413-16
 *C5             7.430-11
 C5H6,1,3cyclo-  1.359-11
 C5H8,cyclo-     2.827-15
 C6H2            7.4890-8
 C6H5,phenyl     3.648-12
 C6H5O,phenoxy   3.496-16
 C6H6            3.177-11
 C6H5OH,phenol   6.327-16
 C7H7,benzyl     3.103-14
 C7H8            1.098-14
 C8H8,styrene    2.051-15
 *H              3.2474-3
 HCO             4.2292-6
 HCCO            8.5929-8
 HO2             4.476-16
 *H2             3.2938-1
 HCHO,formaldehy 1.2374-6
 HCOOH           2.550-10
 H2O             7.4014-5
 H2O2            7.018-16
 *O              9.755-10
 *OH             1.6654-7
 *O2             8.988-14
 C(gr)           1.9742-1

  * THERMODYNAMIC PROPERTIES FITTED TO 20000.K



