
 *******************************************************************************

         NASA-GLENN CHEMICAL EQUILIBRIUM PROGRAM CEA2, MAY 21, 2004
                   BY  BONNIE MCBRIDE AND SANFORD GORDON
      REFS: NASA RP-1311, PART I, 1994 AND NASA RP-1311, PART II, 1996

 *******************************************************************************



 problem    phi,eq.ratio=0.5,0.6,0.7,0.8,0.9,1,1.1,1.2,1.3,1.4,1.5,1.6,1.7,1.8,1.
 9,2,
       tv   t,k=2500,  rho,kg/m**3=1.283,
 react
   fuel=CH3OH moles=1 t,k=300
   oxid=O2 moles=1.5 t,k=300
 output  short   trace=1e-16
 end




               THERMODYNAMIC EQUILIBRIUM PROPERTIES AT ASSIGNED

                            TEMPERATURE AND VOLUME

 CASE =                

             REACTANT                       MOLES         ENERGY      TEMP
                                                         KJ/KG-MOL      K
 FUEL        CH3OH                        1.0000000   -203352.771    300.000
 OXIDANT     O2                           1.5000000     -2439.995    300.000

 O/F=    2.99597  %FUEL= 25.025223  R,EQ.RATIO= 0.571429  PHI,EQ.RATIO= 0.500000

 THERMODYNAMIC PROPERTIES

 P, BAR            9.4656
 T, K             2500.00
 RHO, KG/CU M    1.2830 0
 H, KJ/KG        -3217.32
 U, KJ/KG        -3955.09
 G, KJ/KG        -27814.6
 S, KJ/(KG)(K)     9.8389

 M, (1/n)          28.174
 (dLV/dLP)t      -1.00362
 (dLV/dLT)p        1.0985
 Cp, KJ/(KG)(K)    2.5940
 GAMMAs            1.1543
 SON VEL,M/SEC      922.8

 MOLE FRACTIONS

 CH2OH           3.053-16
 *CO             4.5102-3
 *CO2            2.1554-1
 COOH            9.4972-8
 HO(CO)2OH       1.563-16
 *H              3.1124-4
 HCO             1.8751-9
 HO2             7.4443-5
 *H2             1.4456-3
 HCHO,formaldehy 2.512-11
 HCOOH           6.8202-9
 H2O             4.2794-1
 H2O2            5.3458-6
 *O              2.6895-3
 *OH             2.1027-2
 *O2             3.2647-1
 O3              2.0988-7

  * THERMODYNAMIC PROPERTIES FITTED TO 20000.K









               THERMODYNAMIC EQUILIBRIUM PROPERTIES AT ASSIGNED

                            TEMPERATURE AND VOLUME

 CASE =                

             REACTANT                       MOLES         ENERGY      TEMP
                                                         KJ/KG-MOL      K
 FUEL        CH3OH                        1.0000000   -203352.771    300.000
 OXIDANT     O2                           1.5000000     -2439.995    300.000

 O/F=    2.49664  %FUEL= 28.598881  R,EQ.RATIO= 0.666667  PHI,EQ.RATIO= 0.600000

 THERMODYNAMIC PROPERTIES

 P, BAR            9.6213
 T, K             2500.00
 RHO, KG/CU M    1.2830 0
 H, KJ/KG        -4040.97
 U, KJ/KG        -4790.88
 G, KJ/KG        -29122.5
 S, KJ/(KG)(K)    10.0326

 M, (1/n)          27.718
 (dLV/dLP)t      -1.00394
 (dLV/dLT)p        1.1069
 Cp, KJ/(KG)(K)    2.7537
 GAMMAs            1.1488
 SON VEL,M/SEC      928.2

 MOLE FRACTIONS

 CH2OH           5.889-16
 *CO             5.7895-3
 *CO2            2.4161-1
 COOH            1.2194-7
 HO(CO)2OH       2.619-16
 *H              3.5073-4
 HCO             2.7570-9
 HO2             6.3975-5
 *H2             1.8660-3
 HCHO,formaldehy 4.231-11
 HCOOH           1.0031-8
 H2O             4.8238-1
 H2O2            5.2622-6
 *O              2.3106-3
 *OH             2.0692-2
 *O2             2.4494-1
 O3              1.3751-7

  * THERMODYNAMIC PROPERTIES FITTED TO 20000.K









               THERMODYNAMIC EQUILIBRIUM PROPERTIES AT ASSIGNED

                            TEMPERATURE AND VOLUME

 CASE =                

             REACTANT                       MOLES         ENERGY      TEMP
                                                         KJ/KG-MOL      K
 FUEL        CH3OH                        1.0000000   -203352.771    300.000
 OXIDANT     O2                           1.5000000     -2439.995    300.000

 O/F=    2.13998  %FUEL= 31.847363  R,EQ.RATIO= 0.756757  PHI,EQ.RATIO= 0.700000

 THERMODYNAMIC PROPERTIES

 P, BAR            9.7649
 T, K             2500.00
 RHO, KG/CU M    1.2830 0
 H, KJ/KG        -4786.09
 U, KJ/KG        -5547.19
 G, KJ/KG        -30288.0
 S, KJ/(KG)(K)    10.2008

 M, (1/n)          27.311
 (dLV/dLP)t      -1.00436
 (dLV/dLT)p        1.1174
 Cp, KJ/(KG)(K)    2.9227
 GAMMAs            1.1438
 SON VEL,M/SEC      933.0

 MOLE FRACTIONS

 *C              1.378-16
 CH3             2.082-16
 CH2OH           1.145-15
 CH3O            1.861-16
 *CO             7.4589-3
 *CO2            2.6399-1
 COOH            1.5283-7
 HO(CO)2OH       4.176-16
 *H              3.9639-4
 HCO             4.0744-9
 HO2             5.2004-5
 *H2             2.4190-3
 HCHO,formaldehy 7.172-11
 HCOOH           1.4420-8
 H2O             5.3034-1
 H2O2            4.9065-6
 *O              1.9308-3
 *OH             1.9833-2
 *O2             1.7358-1
 O3              8.2645-8

  * THERMODYNAMIC PROPERTIES FITTED TO 20000.K









               THERMODYNAMIC EQUILIBRIUM PROPERTIES AT ASSIGNED

                            TEMPERATURE AND VOLUME

 CASE =                

             REACTANT                       MOLES         ENERGY      TEMP
                                                         KJ/KG-MOL      K
 FUEL        CH3OH                        1.0000000   -203352.771    300.000
 OXIDANT     O2                           1.5000000     -2439.995    300.000

 O/F=    1.87248  %FUEL= 34.813120  R,EQ.RATIO= 0.842105  PHI,EQ.RATIO= 0.800000

 THERMODYNAMIC PROPERTIES

 P, BAR            9.9007
 T, K             2500.00
 RHO, KG/CU M    1.2830 0
 H, KJ/KG        -5457.65
 U, KJ/KG        -6229.33
 G, KJ/KG        -31328.0
 S, KJ/(KG)(K)    10.3481

 M, (1/n)          26.936
 (dLV/dLP)t      -1.00497
 (dLV/dLT)p        1.1329
 Cp, KJ/(KG)(K)    3.1242
 GAMMAs            1.1388
 SON VEL,M/SEC      937.4

 MOLE FRACTIONS

 *C              2.275-16
 CH2             1.431-16
 CH3             5.447-16
 CH2OH           2.413-15
 CH3O            3.922-16
 CH4             2.191-16
 CH3OH           1.734-16
 *CO             9.9188-3
 *CO2            2.8274-1
 COOH            1.9084-7
 HO(CO)2OH       6.602-16
 *H              4.5581-4
 HCO             6.3169-9
 HO2             3.8791-5
 *H2             3.2431-3
 HCHO,formaldehy 1.296-10
 HCOOH           2.0994-8
 H2O             5.7264-1
 H2O2            4.2670-6
 *O              1.5337-3
 *OH             1.8368-2
 *O2             1.1105-1
 O3              4.2586-8

  * THERMODYNAMIC PROPERTIES FITTED TO 20000.K









               THERMODYNAMIC EQUILIBRIUM PROPERTIES AT ASSIGNED

                            TEMPERATURE AND VOLUME

 CASE =                

             REACTANT                       MOLES         ENERGY      TEMP
                                                         KJ/KG-MOL      K
 FUEL        CH3OH                        1.0000000   -203352.771    300.000
 OXIDANT     O2                           1.5000000     -2439.995    300.000

 O/F=    1.66443  %FUEL= 37.531523  R,EQ.RATIO= 0.923077  PHI,EQ.RATIO= 0.900000

 THERMODYNAMIC PROPERTIES

 P, BAR            10.038
 T, K             2500.00
 RHO, KG/CU M    1.2830 0
 H, KJ/KG        -6048.07
 U, KJ/KG        -6830.46
 G, KJ/KG        -32252.8
 S, KJ/(KG)(K)    10.4819

 M, (1/n)          26.568
 (dLV/dLP)t      -1.00603
 (dLV/dLT)p        1.1599
 Cp, KJ/(KG)(K)    3.4145
 GAMMAs            1.1329
 SON VEL,M/SEC      941.5

 MOLE FRACTIONS

 *C              4.584-16
 *CH             1.213-16
 CH2             4.310-16
 CH3             2.007-15
 CH2OH           6.415-15
 CH3O            1.043-15
 CH4             9.868-16
 CH3OH           5.636-16
 *CO             1.4426-2
 *CO2            2.9677-1
 COOH            2.4491-7
 HO(CO)2OH       1.102-15
 C2O             1.052-16
 *H              5.4968-4
 HCO             1.1233-8
 HO2             2.4362-5
 *H2             4.7817-3
 HCHO,formaldehy 2.819-10
 HCOOH           3.2940-8
 H2O             6.0932-1
 H2O2            3.2766-6
 *O              1.0917-3
 *OH             1.5985-2
 *O2             5.7045-2
 O3              1.5787-8

  * THERMODYNAMIC PROPERTIES FITTED TO 20000.K









               THERMODYNAMIC EQUILIBRIUM PROPERTIES AT ASSIGNED

                            TEMPERATURE AND VOLUME

 CASE =                

             REACTANT                       MOLES         ENERGY      TEMP
                                                         KJ/KG-MOL      K
 FUEL        CH3OH                        1.0000000   -203352.771    300.000
 OXIDANT     O2                           1.5000000     -2439.995    300.000

 O/F=    1.49798  %FUEL= 40.032279  R,EQ.RATIO= 1.000000  PHI,EQ.RATIO= 1.000000

 THERMODYNAMIC PROPERTIES

 P, BAR            10.224
 T, K             2500.00
 RHO, KG/CU M    1.2830 0
 H, KJ/KG        -6473.42
 U, KJ/KG        -7270.30
 G, KJ/KG        -33059.3
 S, KJ/(KG)(K)    10.6343

 M, (1/n)          26.085
 (dLV/dLP)t      -1.00748
 (dLV/dLT)p        1.1969
 Cp, KJ/(KG)(K)    3.7924
 GAMMAs            1.1273
 SON VEL,M/SEC      947.8

 MOLE FRACTIONS

 *C              1.665-15
 *CH             6.267-16
 CH2             3.165-15
 CH3             2.095-14
 CH2OH           3.523-14
 CH3O            5.726-15
 CH4             1.465-14
 CH3OH           4.400-15
 *CO             2.7569-2
 *CO2            2.9832-1
 COOH            3.5001-7
 CH2CO,ketene    3.254-16
 HO(CO)2OH       2.293-15
 C2O             7.437-16
 *H              7.6726-4
 HCO             3.0520-8
 HO2             9.4092-6
 *H2             9.4890-3
 HCHO,formaldehy 1.0888-9
 HCOOH           6.6928-8
 H2O             6.3604-1
 H2O2            1.7991-6
 *O              5.6381-4
 *OH             1.1737-2
 *O2             1.5497-2
 O3              2.2559-9

  * THERMODYNAMIC PROPERTIES FITTED TO 20000.K









               THERMODYNAMIC EQUILIBRIUM PROPERTIES AT ASSIGNED

                            TEMPERATURE AND VOLUME

 CASE =                

             REACTANT                       MOLES         ENERGY      TEMP
                                                         KJ/KG-MOL      K
 FUEL        CH3OH                        1.0000000   -203352.771    300.000
 OXIDANT     O2                           1.5000000     -2439.995    300.000

 O/F=    1.36180  %FUEL= 42.340519  R,EQ.RATIO= 1.073171  PHI,EQ.RATIO= 1.100000

 THERMODYNAMIC PROPERTIES

 P, BAR            10.636
 T, K             2500.00
 RHO, KG/CU M    1.2830 0
 H, KJ/KG        -6384.51
 U, KJ/KG        -7213.50
 G, KJ/KG        -33716.5
 S, KJ/(KG)(K)    10.9328

 M, (1/n)          25.074
 (dLV/dLP)t      -1.00369
 (dLV/dLT)p        1.0976
 Cp, KJ/(KG)(K)    3.0439
 GAMMAs            1.1462
 SON VEL,M/SEC      974.8

 MOLE FRACTIONS

 *C              1.214-14
 *CH             7.885-15
 CH2             6.872-14
 CH3             7.850-13
 CH2OH           4.578-13
 CH3O            7.441-14
 CH4             9.471-13
 CH3OH           9.868-14
 *CO             6.9713-2
 *CO2            2.6162-1
 COOH            5.2971-7
 C2H2,acetylene  1.781-16
 CH2CO,ketene    1.859-14
 O(CH)2O         4.642-16
 HO(CO)2OH       5.464-15
 C2O             1.427-14
 *H              1.2728-3
 HCO             1.3318-7
 HCCO            2.102-15
 HO2             1.8774-6
 *H2             2.7165-2
 HCHO,formaldehy 8.1993-9
 HCOOH           1.7480-7
 H2O             6.3149-1
 H2O2            6.1949-7
 *O              1.8796-4
 *OH             6.7526-3
 *O2             1.7917-3
 O3              9.046-11

  * THERMODYNAMIC PROPERTIES FITTED TO 20000.K









               THERMODYNAMIC EQUILIBRIUM PROPERTIES AT ASSIGNED

                            TEMPERATURE AND VOLUME

 CASE =                

             REACTANT                       MOLES         ENERGY      TEMP
                                                         KJ/KG-MOL      K
 FUEL        CH3OH                        1.0000000   -203352.771    300.000
 OXIDANT     O2                           1.5000000     -2439.995    300.000

 O/F=    1.24832  %FUEL= 44.477651  R,EQ.RATIO= 1.142857  PHI,EQ.RATIO= 1.200000

 THERMODYNAMIC PROPERTIES

 P, BAR            11.147
 T, K             2500.00
 RHO, KG/CU M    1.2830 0
 H, KJ/KG        -6043.98
 U, KJ/KG        -6912.77
 G, KJ/KG        -34253.5
 S, KJ/(KG)(K)    11.2838

 M, (1/n)          23.926
 (dLV/dLP)t      -1.00206
 (dLV/dLT)p        1.0539
 Cp, KJ/(KG)(K)    2.7231
 GAMMAs            1.1624
 SON VEL,M/SEC     1004.9

 MOLE FRACTIONS

 *C              4.054-14
 *CH             3.750-14
 CH2             4.655-13
 CH3             7.575-12
 CH2OH           2.198-12
 CH3O            3.573-13
 CH4             1.302-11
 CH3OH           6.750-13
 *CO             1.1581-1
 *CO2            2.1630-1
 COOH            6.2384-7
 C2H2,acetylene  4.220-15
 CH2CO,ketene    2.192-13
 O(CH)2O         2.724-15
 HO(CO)2OH       7.942-15
 C2O             8.291-14
 C3O2            8.670-16
 *H              1.7300-3
 HCO             3.1517-7
 HCCO            1.740-14
 HO2             6.3198-7
 *H2             5.2597-2
 HCHO,formaldehy 2.7640-8
 HCOOH           2.9324-7
 H2O             6.0848-1
 H2O2            2.9706-7
 *O              8.9255-5
 *OH             4.5676-3
 *O2             4.2341-4
 O3              1.064-11

  * THERMODYNAMIC PROPERTIES FITTED TO 20000.K









               THERMODYNAMIC EQUILIBRIUM PROPERTIES AT ASSIGNED

                            TEMPERATURE AND VOLUME

 CASE =                

             REACTANT                       MOLES         ENERGY      TEMP
                                                         KJ/KG-MOL      K
 FUEL        CH3OH                        1.0000000   -203352.771    300.000
 OXIDANT     O2                           1.5000000     -2439.995    300.000

 O/F=    1.15230  %FUEL= 46.462021  R,EQ.RATIO= 1.209302  PHI,EQ.RATIO= 1.300000

 THERMODYNAMIC PROPERTIES

 P, BAR            11.636
 T, K             2500.00
 RHO, KG/CU M    1.2830 0
 H, KJ/KG        -5700.41
 U, KJ/KG        -6607.36
 G, KJ/KG        -34716.6
 S, KJ/(KG)(K)    11.6065

 M, (1/n)          22.919
 (dLV/dLP)t      -1.00160
 (dLV/dLT)p        1.0411
 Cp, KJ/(KG)(K)    2.6571
 GAMMAs            1.1715
 SON VEL,M/SEC     1030.8

 MOLE FRACTIONS

 *C              8.365-14
 *CH             9.703-14
 CH2             1.511-12
 CH3             3.082-11
 CH2OH           5.687-12
 CH3O            9.243-13
 CH4             6.642-11
 CH3OH           2.190-12
 *CO             1.5194-1
 *CO2            1.8039-1
 COOH            6.5242-7
 C2H2,acetylene  2.950-14
 CH2CO,ketene    9.742-13
 O(CH)2O         7.697-15
 HO(CO)2OH       9.068-15
 CH3CO,acetyl    2.834-16
 C2O             2.343-13
 C3O2            3.356-15
 *H              2.0781-3
 HCO             5.1849-7
 HCCO            6.166-14
 HO2             3.0680-7
 *H2             7.9225-2
 HCHO,formaldehy 5.7018-8
 HCOOH           3.8456-7
 H2O             5.8266-1
 H2O2            1.8083-7
 *O              5.4354-5
 *OH             3.4880-3
 *O2             1.6392-4
 O3              2.618-12

  * THERMODYNAMIC PROPERTIES FITTED TO 20000.K









               THERMODYNAMIC EQUILIBRIUM PROPERTIES AT ASSIGNED

                            TEMPERATURE AND VOLUME

 CASE =                

             REACTANT                       MOLES         ENERGY      TEMP
                                                         KJ/KG-MOL      K
 FUEL        CH3OH                        1.0000000   -203352.771    300.000
 OXIDANT     O2                           1.5000000     -2439.995    300.000

 O/F=    1.06999  %FUEL= 48.309442  R,EQ.RATIO= 1.272727  PHI,EQ.RATIO= 1.400000

 THERMODYNAMIC PROPERTIES

 P, BAR            12.095
 T, K             2500.00
 RHO, KG/CU M    1.2830 0
 H, KJ/KG        -5377.21
 U, KJ/KG        -6319.95
 G, KJ/KG        -35125.9
 S, KJ/(KG)(K)    11.8995

 M, (1/n)          22.049
 (dLV/dLP)t      -1.00141
 (dLV/dLT)p        1.0355
 Cp, KJ/(KG)(K)    2.6500
 GAMMAs            1.1781
 SON VEL,M/SEC     1053.9

 MOLE FRACTIONS

 *C              1.382-13
 *CH             1.887-13
 CH2             3.460-12
 CH3             8.313-11
 CH2OH           1.098-11
 CH3O            1.785-12
 CH4             2.110-10
 CH3OH           4.979-12
 *CO             1.7968-1
 *CO2            1.5275-1
 COOH            6.5055-7
 C2H             1.874-16
 C2H2,acetylene  1.160-13
 CH2CO,ketene    2.743-12
 O(CH)2O         1.552-14
 HO(CO)2OH       9.372-15
 CH3CO,acetyl    9.398-16
 C2H4            1.096-16
 CH3CHO,ethanal  1.139-16
 CH3COOH         1.043-16
 C2O             4.757-13
 C3O2            8.375-15
 *H              2.3543-3
 HCO             7.2206-7
 HCCO            1.474-13
 HO2             1.7819-7
 *H2             1.0569-1
 HCHO,formaldehy 9.3507-8
 HCOOH           4.5156-7
 H2O             5.5657-1
 H2O2            1.2368-7
 *O              3.7441-5
 *OH             2.8293-3
 *O2             8.0846-5
 O3              9.246-13

  * THERMODYNAMIC PROPERTIES FITTED TO 20000.K









               THERMODYNAMIC EQUILIBRIUM PROPERTIES AT ASSIGNED

                            TEMPERATURE AND VOLUME

 CASE =                

             REACTANT                       MOLES         ENERGY      TEMP
                                                         KJ/KG-MOL      K
 FUEL        CH3OH                        1.0000000   -203352.771    300.000
 OXIDANT     O2                           1.5000000     -2439.995    300.000

 O/F=    0.99866  %FUEL= 50.033619  R,EQ.RATIO= 1.333333  PHI,EQ.RATIO= 1.500000

 THERMODYNAMIC PROPERTIES

 P, BAR            12.525
 T, K             2500.00
 RHO, KG/CU M    1.2830 0
 H, KJ/KG        -5075.91
 U, KJ/KG        -6052.14
 G, KJ/KG        -35492.7
 S, KJ/(KG)(K)    12.1667

 M, (1/n)          21.292
 (dLV/dLP)t      -1.00131
 (dLV/dLT)p        1.0325
 Cp, KJ/(KG)(K)    2.6625
 GAMMAs            1.1835
 SON VEL,M/SEC     1074.9

 MOLE FRACTIONS

 *C              2.014-13
 *CH             3.121-13
 CH2             6.490-12
 CH3             1.769-10
 CH2OH           1.795-11
 CH3O            2.917-12
 CH4             5.093-10
 CH3OH           9.231-12
 *CO             2.0116-1
 *CO2            1.3132-1
 COOH            6.3446-7
 C2H             4.678-16
 C2H2,acetylene  3.285-13
 C2H2,vinylidene 2.562-16
 CH2CO,ketene    5.965-12
 O(CH)2O         2.591-14
 HO(CO)2OH       9.231-15
 CH3CO,acetyl    2.318-15
 C2H4            3.995-16
 CH3CHO,ethanal  3.189-16
 CH3COOH         2.241-16
 C2O             8.040-13
 C3O2            1.641-14
 *H              2.5790-3
 HCO             9.1699-7
 HCCO            2.827-13
 HO2             1.1512-7
 *H2             1.3134-1
 HCHO,formaldehy 1.3471-7
 HCOOH           4.9958-7
 H2O             5.3114-1
 H2O2            9.0640-8
 *O              2.7766-5
 *OH             2.3802-3
 *O2             4.6043-5
 O3              4.044-13

  * THERMODYNAMIC PROPERTIES FITTED TO 20000.K









               THERMODYNAMIC EQUILIBRIUM PROPERTIES AT ASSIGNED

                            TEMPERATURE AND VOLUME

 CASE =                

             REACTANT                       MOLES         ENERGY      TEMP
                                                         KJ/KG-MOL      K
 FUEL        CH3OH                        1.0000000   -203352.771    300.000
 OXIDANT     O2                           1.5000000     -2439.995    300.000

 O/F=    0.93624  %FUEL= 51.646487  R,EQ.RATIO= 1.391304  PHI,EQ.RATIO= 1.600000

 THERMODYNAMIC PROPERTIES

 P, BAR            12.928
 T, K             2500.00
 RHO, KG/CU M    1.2830 0
 H, KJ/KG        -4795.10
 U, KJ/KG        -5802.70
 G, KJ/KG        -35824.7
 S, KJ/(KG)(K)    12.4118

 M, (1/n)          20.629
 (dLV/dLP)t      -1.00126
 (dLV/dLT)p        1.0306
 Cp, KJ/(KG)(K)    2.6829
 GAMMAs            1.1881
 SON VEL,M/SEC     1094.1

 MOLE FRACTIONS

 *C              2.713-13
 *CH             4.652-13
 CH2             1.070-11
 CH3             3.228-10
 CH2OH           2.635-11
 CH3O            4.282-12
 CH4             1.0283-9
 CH3OH           1.499-11
 *CO             2.1801-1
 *CO2            1.1450-1
 COOH            6.1208-7
 C2H             9.696-16
 C2H2,acetylene  7.533-13
 C2H2,vinylidene 5.874-16
 CH2CO,ketene    1.100-11
 O(CH)2O         3.846-14
 HO(CO)2OH       8.867-15
 C2H3,vinyl      1.653-16
 CH3CO,acetyl    4.733-15
 C2H4            1.121-15
 CH3CHO,ethanal  7.202-16
 CH3COOH         4.071-16
 C2O             1.212-12
 C3O2            2.766-14
 *H              2.7647-3
 HCO             1.0996-6
 HCCO            4.713-13
 HO2             7.9871-8
 *H2             1.5579-1
 HCHO,formaldehy 1.7873-7
 HCOOH           5.3326-7
 H2O             5.0683-1
 H2O2            6.9582-8
 *O              2.1642-5
 *OH             2.0527-3
 *O2             2.8872-5
 O3              2.040-13

  * THERMODYNAMIC PROPERTIES FITTED TO 20000.K









               THERMODYNAMIC EQUILIBRIUM PROPERTIES AT ASSIGNED

                            TEMPERATURE AND VOLUME

 CASE =                

             REACTANT                       MOLES         ENERGY      TEMP
                                                         KJ/KG-MOL      K
 FUEL        CH3OH                        1.0000000   -203352.771    300.000
 OXIDANT     O2                           1.5000000     -2439.995    300.000

 O/F=    0.88117  %FUEL= 53.158487  R,EQ.RATIO= 1.446809  PHI,EQ.RATIO= 1.700000

 THERMODYNAMIC PROPERTIES

 P, BAR            13.305
 T, K             2500.00
 RHO, KG/CU M    1.2830 0
 H, KJ/KG        -4532.89
 U, KJ/KG        -5569.93
 G, KJ/KG        -36127.4
 S, KJ/(KG)(K)    12.6378

 M, (1/n)          20.044
 (dLV/dLP)t      -1.00122
 (dLV/dLT)p        1.0294
 Cp, KJ/(KG)(K)    2.7066
 GAMMAs            1.1921
 SON VEL,M/SEC     1111.9

 MOLE FRACTIONS

 *C              3.464-13
 *CH             6.454-13
 CH2             1.614-11
 CH3             5.292-10
 CH2OH           3.592-11
 CH3O            5.838-12
 CH4             1.8322-9
 CH3OH           2.222-11
 *CO             2.3144-1
 *CO2            1.0109-1
 COOH            5.8739-7
 C2H             1.767-15
 C2H2,acetylene  1.492-12
 C2H2,vinylidene 1.164-15
 CH2CO,ketene    1.813-11
 O(CH)2O         5.271-14
 HO(CO)2OH       8.405-15
 C2H3,vinyl      3.559-16
 CH3CO,acetyl    8.476-15
 C2H4            2.625-15
 CH3CHO,ethanal  1.402-15
 CH3COOH         6.592-16
 C2O             1.690-12
 C3O2            4.215-14
 *H              2.9198-3
 HCO             1.2688-6
 HCCO            7.144-13
 HO2             5.8345-8
 *H2             1.7883-1
 HCHO,formaldehy 2.2417-7
 HCOOH           5.5625-7
 H2O             4.8387-1
 H2O2            5.5249-8
 *O              1.7488-5
 *OH             1.8030-3
 *O2             1.9403-5
 O3              1.140-13

  * THERMODYNAMIC PROPERTIES FITTED TO 20000.K









               THERMODYNAMIC EQUILIBRIUM PROPERTIES AT ASSIGNED

                            TEMPERATURE AND VOLUME

 CASE =                

             REACTANT                       MOLES         ENERGY      TEMP
                                                         KJ/KG-MOL      K
 FUEL        CH3OH                        1.0000000   -203352.771    300.000
 OXIDANT     O2                           1.5000000     -2439.995    300.000

 O/F=    0.83221  %FUEL= 54.578794  R,EQ.RATIO= 1.500000  PHI,EQ.RATIO= 1.800000

 THERMODYNAMIC PROPERTIES

 P, BAR            13.660
 T, K             2500.00
 RHO, KG/CU M    1.2830 0
 H, KJ/KG        -4287.50
 U, KJ/KG        -5352.20
 G, KJ/KG        -36405.0
 S, KJ/(KG)(K)    12.8470

 M, (1/n)          19.523
 (dLV/dLP)t      -1.00119
 (dLV/dLT)p        1.0285
 Cp, KJ/(KG)(K)    2.7316
 GAMMAs            1.1958
 SON VEL,M/SEC     1128.3

 MOLE FRACTIONS

 *C              4.253-13
 *CH             8.501-13
 CH2             2.281-11
 CH3             8.019-10
 CH2OH           4.641-11
 CH3O            7.543-12
 CH4             2.9781-9
 CH3OH           3.079-11
 *CO             2.4230-1
 *CO2            9.0243-2
 COOH            5.6244-7
 C2H             2.934-15
 C2H2,acetylene  2.658-12
 C2H2,vinylidene 2.073-15
 CH2CO,ketene    2.753-11
 O(CH)2O         6.824-14
 HO(CO)2OH       7.911-15
 C2H3,vinyl      6.798-16
 CH3CO,acetyl    1.381-14
 C2H4            5.379-15
 CH3CHO,ethanal  2.449-15
 CH3COOH         9.819-16
 C2O             2.230-12
 C3O2            5.979-14
 *H              3.0505-3
 HCO             1.4249-6
 HCCO            1.011-12
 HO2             4.4316-8
 *H2             2.0041-1
 HCHO,formaldehy 2.7003-7
 HCOOH           5.7130-7
 H2O             4.6236-1
 H2O2            4.5013-8
 *O              1.4524-5
 *OH             1.6061-3
 *O2             1.3740-5
 O3              6.884-14

  * THERMODYNAMIC PROPERTIES FITTED TO 20000.K









               THERMODYNAMIC EQUILIBRIUM PROPERTIES AT ASSIGNED

                            TEMPERATURE AND VOLUME

 CASE =                

             REACTANT                       MOLES         ENERGY      TEMP
                                                         KJ/KG-MOL      K
 FUEL        CH3OH                        1.0000000   -203352.771    300.000
 OXIDANT     O2                           1.5000000     -2439.995    300.000

 O/F=    0.78841  %FUEL= 55.915504  R,EQ.RATIO= 1.551020  PHI,EQ.RATIO= 1.900000

 THERMODYNAMIC PROPERTIES

 P, BAR            13.994
 T, K             2500.00
 RHO, KG/CU M    1.2830 0
 H, KJ/KG        -4057.30
 U, KJ/KG        -5148.05
 G, KJ/KG        -36660.8
 S, KJ/(KG)(K)    13.0414

 M, (1/n)          19.057
 (dLV/dLP)t      -1.00118
 (dLV/dLT)p        1.0279
 Cp, KJ/(KG)(K)    2.7569
 GAMMAs            1.1991
 SON VEL,M/SEC     1143.6

 MOLE FRACTIONS

 *C              5.072-13
 *CH             1.076-12
 CH2             3.066-11
 CH3             1.1447-9
 CH2OH           5.759-11
 CH3O            9.361-12
 CH4             4.5140-9
 CH3OH           4.057-11
 *CO             2.5122-1
 *CO2            8.1335-2
 COOH            5.3822-7
 C2H             4.540-15
 C2H2,acetylene  4.367-12
 C2H2,vinylidene 3.405-15
 CH2CO,ketene    3.932-11
 O(CH)2O         8.472-14
 HO(CO)2OH       7.422-15
 C2H3,vinyl      1.186-15
 CH3CO,acetyl    2.093-14
 C2H4            9.962-15
 CH3CHO,ethanal  3.944-15
 CH3COOH         1.374-15
 C2O             2.825-12
 C3O2            8.046-14
 *H              3.1616-3
 HCO             1.5686-6
 HCCO            1.360-12
 HO2             3.4708-8
 *H2             2.2053-1
 HCHO,formaldehy 3.1561-7
 HCOOH           5.8047-7
 H2O             4.4228-1
 H2O2            3.7430-8
 *O              1.2324-5
 *OH             1.4470-3
 *O2             1.0135-5
 O3              4.414-14

  * THERMODYNAMIC PROPERTIES FITTED TO 20000.K









               THERMODYNAMIC EQUILIBRIUM PROPERTIES AT ASSIGNED

                            TEMPERATURE AND VOLUME

 CASE =                

             REACTANT                       MOLES         ENERGY      TEMP
                                                         KJ/KG-MOL      K
 FUEL        CH3OH                        1.0000000   -203352.771    300.000
 OXIDANT     O2                           1.5000000     -2439.995    300.000

 O/F=    0.74899  %FUEL= 57.175787  R,EQ.RATIO= 1.600000  PHI,EQ.RATIO= 2.000000

 THERMODYNAMIC PROPERTIES

 P, BAR            14.309
 T, K             2500.00
 RHO, KG/CU M    1.2830 0
 H, KJ/KG        -3840.88
 U, KJ/KG        -4956.18
 G, KJ/KG        -36897.6
 S, KJ/(KG)(K)    13.2227

 M, (1/n)          18.637
 (dLV/dLP)t      -1.00116
 (dLV/dLT)p        1.0274
 Cp, KJ/(KG)(K)    2.7818
 GAMMAs            1.2021
 SON VEL,M/SEC     1157.9

 MOLE FRACTIONS

 *C              5.916-13
 *CH             1.322-12
 CH2             3.967-11
 CH3             1.5599-9
 CH2OH           6.928-11
 CH3O            1.126-11
 CH4             6.4786-9
 CH3OH           5.141-11
 *CO             2.5864-1
 *CO2            7.3921-2
 COOH            5.1522-7
 C2H             6.651-15
 C2H2,acetylene  6.737-12
 C2H2,vinylidene 5.253-15
 CH2CO,ketene    5.356-11
 O(CH)2O         1.019-13
 HO(CO)2OH       6.954-15
 C2H3,vinyl      1.927-15
 CH3CO,acetyl    3.003-14
 C2H4            1.705-14
 CH3CHO,ethanal  5.958-15
 CH3COOH         1.833-15
 C2O             3.469-12
 C3O2            1.040-13
 *H              3.2566-3
 HCO             1.7009-6
 HCCO            1.759-12
 HO2             2.7861-8
 *H2             2.3926-1
 HCHO,formaldehy 3.6046-7
 HCOOH           5.8524-7
 H2O             4.2358-1
 H2O2            3.1646-8
 *O              1.0640-5
 *OH             1.3158-3
 *O2             7.7243-6
 O3              2.970-14

  * THERMODYNAMIC PROPERTIES FITTED TO 20000.K



