
 *******************************************************************************

         NASA-GLENN CHEMICAL EQUILIBRIUM PROGRAM CEA2, MAY 21, 2004
                   BY  BONNIE MCBRIDE AND SANFORD GORDON
      REFS: NASA RP-1311, PART I, 1994 AND NASA RP-1311, PART II, 1996

 *******************************************************************************



 problem    phi,eq.ratio=2.1,2.2,2.3,2.4,2.5,2.6,2.7,2.8,2.9,3,3.1,3.2,3.3,3.4,3.
 5,3.6,
       tv   t,k=2500,  rho,kg/m**3=1.175,
 react
   fuel=CH3OH moles=1 t,k=300
   oxid=O2 moles=1.5 t,k=300
   oxid=N2 moles=5.6429 t,k=300
 output
      trace=1e-16 siunits short
 end




               THERMODYNAMIC EQUILIBRIUM PROPERTIES AT ASSIGNED

                            TEMPERATURE AND VOLUME

 CASE =                

             REACTANT                       MOLES         ENERGY      TEMP
                                                         KJ/KG-MOL      K
 FUEL        CH3OH                        1.0000000   -203352.771    300.000
 OXIDANT     O2                           1.5000000     -2439.995    300.000
 OXIDANT     N2                           5.6429000     -2440.472    300.000

 O/F=    3.06259  %FUEL= 24.614862  R,EQ.RATIO= 1.647059  PHI,EQ.RATIO= 2.100000

 THERMODYNAMIC PROPERTIES

 P, BAR            10.692
 T, K             2500.00
 RHO, KG/CU M    1.1750 0
 H, KJ/KG          17.337
 U, KJ/KG         -892.61
 G, KJ/KG        -27309.1
 S, KJ/(KG)(K)    10.9306

 M, (1/n)          22.843
 (dLV/dLP)t      -1.00102
 (dLV/dLT)p        1.0240
 Cp, KJ/(KG)(K)    2.0272
 GAMMAs            1.2304
 SON VEL,M/SEC     1058.1

 MOLE FRACTIONS

 *C              3.579-13
 *CH             5.198-13
 CH2             1.013-11
 CH3             2.589-10
 CH2OH           1.027-11
 CH3O            1.670-12
 CH4             6.987-10
 CH3OH           4.953-12
 *CN             5.388-10
 *CO             1.3979-1
 *CO2            3.5693-2
 COOH            1.6165-7
 C2H             1.182-15
 C2H2,acetylene  7.779-13
 C2H2,vinylidene 6.066-16
 CH2CO,ketene    5.525-12
 O(CH)2O         9.387-15
 HO(CO)2OH       5.115-16
 C2H3,vinyl      1.446-16
 CH3CN           8.379-16
 CH3CO,acetyl    2.013-15
 C2H4            8.312-16
 CH3CHO,ethanal  2.595-16
 OCCN            1.914-13
 C2N2            1.937-14
 C2O             8.475-13
 C3O2            1.026-14
 *H              2.8321-3
 HCN             4.5254-7
 HCO             5.9735-7
 HCCO            2.793-13
 HNC             4.8138-8
 HNCO            2.0356-7
 HNO             5.3980-8
 HNO2            1.0271-9
 HNO3            3.362-15
 HO2             1.9338-8
 *H2             1.3520-1
 HCHO,formaldehy 8.2258-8
 HCOOH           1.1931-7
 H2O             2.1384-1
 H2O2            1.4273-8
 *N              6.1311-8
 NCO             2.7340-9
 *NH             9.7280-8
 NH2             3.2547-7
 NH3             3.8235-6
 NH2OH           5.913-11
 *NO             1.1150-4
 NO2             2.0496-9
 NO3             1.051-16
 *N2             4.7149-1
 NCN             2.085-14
 N2H2            2.730-11
 N2H4            7.929-15
 N2O             1.5714-8
 N3              4.256-13
 N3H             7.996-13
 *O              1.2722-5
 *OH             1.0223-3
 *O2             8.2509-6
 O3              2.834-14

  * THERMODYNAMIC PROPERTIES FITTED TO 20000.K









               THERMODYNAMIC EQUILIBRIUM PROPERTIES AT ASSIGNED

                            TEMPERATURE AND VOLUME

 CASE =                

             REACTANT                       MOLES         ENERGY      TEMP
                                                         KJ/KG-MOL      K
 FUEL        CH3OH                        1.0000000   -203352.771    300.000
 OXIDANT     O2                           1.5000000     -2439.995    300.000
 OXIDANT     N2                           5.6429000     -2440.472    300.000

 O/F=    2.92338  %FUEL= 25.488241  R,EQ.RATIO= 1.692308  PHI,EQ.RATIO= 2.200000

 THERMODYNAMIC PROPERTIES

 P, BAR            10.834
 T, K             2500.00
 RHO, KG/CU M    1.1750 0
 H, KJ/KG          57.518
 U, KJ/KG         -864.49
 G, KJ/KG        -27529.1
 S, KJ/(KG)(K)    11.0346

 M, (1/n)          22.545
 (dLV/dLP)t      -1.00102
 (dLV/dLT)p        1.0239
 Cp, KJ/(KG)(K)    2.0457
 GAMMAs            1.2315
 SON VEL,M/SEC     1065.6

 MOLE FRACTIONS

 *C              4.129-13
 *CH             6.292-13
 CH2             1.287-11
 CH3             3.450-10
 CH2OH           1.237-11
 CH3O            2.010-12
 CH4             9.767-10
 CH3OH           6.255-12
 *CN             6.180-10
 *CO             1.4572-1
 *CO2            3.3614-2
 COOH            1.5971-7
 C2H             1.673-15
 C2H2,acetylene  1.155-12
 C2H2,vinylidene 9.006-16
 CH2CO,ketene    7.411-12
 O(CH)2O         1.138-14
 HO(CO)2OH       5.059-16
 C2H3,vinyl      2.252-16
 CH3CN           1.298-15
 CH3CO,acetyl    2.833-15
 C2H4            1.358-15
 CH3CHO,ethanal  3.832-16
 OCCN            2.319-13
 C2N2            2.583-14
 C2O             1.033-12
 C3O2            1.321-14
 *H              2.9323-3
 HCN             5.4463-7
 HCO             6.5327-7
 HCCO            3.571-13
 HNC             5.7934-8
 HNCO            2.2133-7
 HNO             5.0201-8
 HNO2            8.629-10
 HNO3            2.552-15
 HO2             1.6342-8
 *H2             1.4686-1
 HCHO,formaldehy 9.4380-8
 HCOOH           1.2368-7
 H2O             2.0985-1
 H2O2            1.2654-8
 *N              6.0158-8
 NCO             2.8335-9
 *NH             1.0014-7
 NH2             3.5150-7
 NH3             4.3322-6
 NH2OH           6.053-11
 *NO             9.8836-5
 NO2             1.6414-9
 *N2             4.5994-1
 NCN             2.378-14
 N2H2            2.932-11
 N2H4            9.371-15
 N2O             1.3849-8
 N3              4.127-13
 N3H             8.136-13
 *O              1.1343-5
 *OH             9.5625-4
 *O2             6.6462-6
 O3              2.062-14

  * THERMODYNAMIC PROPERTIES FITTED TO 20000.K









               THERMODYNAMIC EQUILIBRIUM PROPERTIES AT ASSIGNED

                            TEMPERATURE AND VOLUME

 CASE =                

             REACTANT                       MOLES         ENERGY      TEMP
                                                         KJ/KG-MOL      K
 FUEL        CH3OH                        1.0000000   -203352.771    300.000
 OXIDANT     O2                           1.5000000     -2439.995    300.000
 OXIDANT     N2                           5.6429000     -2440.472    300.000

 O/F=    2.79627  %FUEL= 26.341615  R,EQ.RATIO= 1.735849  PHI,EQ.RATIO= 2.300000

 THERMODYNAMIC PROPERTIES

 P, BAR            10.972
 T, K             2500.00
 RHO, KG/CU M    1.1750 0
 H, KJ/KG          96.676
 U, KJ/KG         -837.11
 G, KJ/KG        -27742.4
 S, KJ/(KG)(K)    11.1356

 M, (1/n)          22.260
 (dLV/dLP)t      -1.00102
 (dLV/dLT)p        1.0239
 Cp, KJ/(KG)(K)    2.0643
 GAMMAs            1.2325
 SON VEL,M/SEC     1072.8

 MOLE FRACTIONS

 *C              4.702-13
 *CH             7.483-13
 CH2             1.598-11
 CH3             4.473-10
 CH2OH           1.461-11
 CH3O            2.375-12
 CH4             1.3225-9
 CH3OH           7.718-12
 *CN             6.997-10
 CNN             1.025-16
 *CO             1.5121-1
 *CO2            3.1786-2
 COOH            1.5771-7
 C2H             2.294-15
 C2H2,acetylene  1.654-12
 C2H2,vinylidene 1.290-15
 CH2CO,ketene    9.672-12
 O(CH)2O         1.353-14
 HO(CO)2OH       4.996-16
 C2H3,vinyl      3.368-16
 CH3CN           1.929-15
 CH3CO,acetyl    3.860-15
 C2H4            2.121-15
 CH3CHO,ethanal  5.453-16
 CH3COOH         1.234-16
 OCCN            2.760-13
 C2N2            3.353-14
 C2O             1.236-12
 C3O2            1.661-14
 *H              3.0235-3
 HCN             6.4392-7
 HCO             7.0790-7
 HCCO            4.462-13
 HNC             6.8496-8
 HNCO            2.3846-7
 HNO             4.6897-8
 HNO2            7.346-10
 HNO3            1.980-15
 HO2             1.3992-8
 *H2             1.5813-1
 HCHO,formaldehy 1.0680-7
 HCOOH           1.2753-7
 H2O             2.0590-1
 H2O2            1.1314-8
 *N              5.9058-8
 NCO             2.9234-9
 *NH             1.0266-7
 NH2             3.7629-7
 NH3             4.8430-6
 NH2OH           6.166-11
 *NO             8.8419-5
 NO2             1.3381-9
 *N2             4.4893-1
 NCN             2.677-14
 N2H2            3.120-11
 N2H4            1.088-14
 N2O             1.2318-8
 N3              4.006-13
 N3H             8.245-13
 *O              1.0206-5
 *OH             8.9848-4
 *O2             5.4494-6
 O3              1.541-14

  * THERMODYNAMIC PROPERTIES FITTED TO 20000.K









               THERMODYNAMIC EQUILIBRIUM PROPERTIES AT ASSIGNED

                            TEMPERATURE AND VOLUME

 CASE =                

             REACTANT                       MOLES         ENERGY      TEMP
                                                         KJ/KG-MOL      K
 FUEL        CH3OH                        1.0000000   -203352.771    300.000
 OXIDANT     O2                           1.5000000     -2439.995    300.000
 OXIDANT     N2                           5.6429000     -2440.472    300.000

 O/F=    2.67976  %FUEL= 27.175664  R,EQ.RATIO= 1.777778  PHI,EQ.RATIO= 2.400000

 THERMODYNAMIC PROPERTIES

 P, BAR            11.107
 T, K             2500.00
 RHO, KG/CU M    1.1750 0
 H, KJ/KG          134.86
 U, KJ/KG         -810.45
 G, KJ/KG        -27949.5
 S, KJ/(KG)(K)    11.2337

 M, (1/n)          21.989
 (dLV/dLP)t      -1.00103
 (dLV/dLT)p        1.0239
 Cp, KJ/(KG)(K)    2.0828
 GAMMAs            1.2335
 SON VEL,M/SEC     1079.8

 MOLE FRACTIONS

 *C              5.296-13
 *CH             8.765-13
 CH2             1.947-11
 CH3             5.669-10
 CH2OH           1.700-11
 CH3O            2.763-12
 CH4             1.7434-9
 CH3OH           9.340-12
 *CN             7.836-10
 CNN             1.141-16
 *CO             1.5633-1
 *CO2            3.0167-2
 COOH            1.5568-7
 C2H             3.063-15
 C2H2,acetylene  2.298-12
 C2H2,vinylidene 1.792-15
 CH2CO,ketene    1.233-11
 O(CH)2O         1.584-14
 HO(CO)2OH       4.929-16
 C2H3,vinyl      4.866-16
 CH3CN           2.772-15
 CH3CO,acetyl    5.120-15
 C2H4            3.188-15
 CH3CHO,ethanal  7.522-16
 CH3COOH         1.562-16
 OCCN            3.234-13
 C2N2            4.256-14
 C2O             1.457-12
 C3O2            2.049-14
 *H              3.1065-3
 HCN             7.4999-7
 HCO             7.6122-7
 HCCO            5.471-13
 HNC             7.9780-8
 HNCO            2.5496-7
 HNO             4.3983-8
 HNO2            6.325-10
 HNO3            1.565-15
 HO2             1.2115-8
 *H2             1.6900-1
 HCHO,formaldehy 1.1945-7
 HCOOH           1.3094-7
 H2O             2.0201-1
 H2O2            1.0190-8
 *N              5.8008-8
 NCO             3.0051-9
 *NH             1.0488-7
 NH2             3.9987-7
 NH3             5.3530-6
 NH2OH           6.257-11
 *NO             7.9724-5
 NO2             1.1076-9
 *N2             4.3845-1
 NCN             2.981-14
 N2H2            3.297-11
 N2H4            1.243-14
 N2O             1.1044-8
 N3              3.890-13
 N3H             8.328-13
 *O              9.2549-6
 *OH             8.4746-4
 *O2             4.5364-6
 O3              1.178-14

  * THERMODYNAMIC PROPERTIES FITTED TO 20000.K









               THERMODYNAMIC EQUILIBRIUM PROPERTIES AT ASSIGNED

                            TEMPERATURE AND VOLUME

 CASE =                

             REACTANT                       MOLES         ENERGY      TEMP
                                                         KJ/KG-MOL      K
 FUEL        CH3OH                        1.0000000   -203352.771    300.000
 OXIDANT     O2                           1.5000000     -2439.995    300.000
 OXIDANT     N2                           5.6429000     -2440.472    300.000

 O/F=    2.57257  %FUEL= 27.991035  R,EQ.RATIO= 1.818182  PHI,EQ.RATIO= 2.500000

 THERMODYNAMIC PROPERTIES

 P, BAR            11.240
 T, K             2500.00
 RHO, KG/CU M    1.1750 0
 H, KJ/KG          172.10
 U, KJ/KG         -784.46
 G, KJ/KG        -28150.7
 S, KJ/(KG)(K)    11.3291

 M, (1/n)          21.730
 (dLV/dLP)t      -1.00103
 (dLV/dLT)p        1.0239
 Cp, KJ/(KG)(K)    2.1012
 GAMMAs            1.2344
 SON VEL,M/SEC     1086.6

 MOLE FRACTIONS

 *C              5.908-13
 *CH             1.014-12
 CH2             2.334-11
 CH3             7.045-10
 CH2OH           1.952-11
 CH3O            3.172-12
 CH4             2.2460-9
 CH3OH           1.112-11
 *CN             8.692-10
 CNN             1.259-16
 *CO             1.6111-1
 *CO2            2.8721-2
 COOH            1.5365-7
 C2H             3.999-15
 C2H2,acetylene  3.109-12
 C2H2,vinylidene 2.425-15
 CH2CO,ketene    1.542-11
 O(CH)2O         1.829-14
 HO(CO)2OH       4.858-16
 C2H3,vinyl      6.827-16
 CH3CN           3.867-15
 CH3CO,acetyl    6.636-15
 C2H4            4.636-15
 CH3CHO,ethanal  1.011-15
 CH3COOH         1.939-16
 OCCN            3.742-13
 C2N2            5.300-14
 C2O             1.695-12
 C3O2            2.486-14
 *H              3.1825-3
 HCN             8.6246-7
 HCO             8.1325-7
 HCCO            6.598-13
 HNC             9.1744-8
 HNCO            2.7086-7
 HNO             4.1392-8
 HNO2            5.499-10
 HNO3            1.257-15
 HO2             1.0593-8
 *H2             1.7947-1
 HCHO,formaldehy 1.3229-7
 HCOOH           1.3397-7
 H2O             1.9819-1
 H2O2            9.2354-9
 *N              5.7003-8
 NCO             3.0796-9
 *NH             1.0684-7
 NH2             4.2227-7
 NH3             5.8601-6
 NH2OH           6.327-11
 *NO             7.2375-5
 NO2             9.289-10
 *N2             4.2844-1
 NCN             3.288-14
 N2H2            3.462-11
 N2H4            1.403-14
 N2O             9.9695-9
 N3              3.780-13
 N3H             8.389-13
 *O              8.4492-6
 *OH             8.0203-4
 *O2             3.8259-6
 O3              9.175-15

  * THERMODYNAMIC PROPERTIES FITTED TO 20000.K









               THERMODYNAMIC EQUILIBRIUM PROPERTIES AT ASSIGNED

                            TEMPERATURE AND VOLUME

 CASE =                

             REACTANT                       MOLES         ENERGY      TEMP
                                                         KJ/KG-MOL      K
 FUEL        CH3OH                        1.0000000   -203352.771    300.000
 OXIDANT     O2                           1.5000000     -2439.995    300.000
 OXIDANT     N2                           5.6429000     -2440.472    300.000

 O/F=    2.47363  %FUEL= 28.788350  R,EQ.RATIO= 1.857143  PHI,EQ.RATIO= 2.600000

 THERMODYNAMIC PROPERTIES

 P, BAR            11.369
 T, K             2500.00
 RHO, KG/CU M    1.1750 0
 H, KJ/KG          208.46
 U, KJ/KG         -759.12
 G, KJ/KG        -28346.2
 S, KJ/(KG)(K)    11.4219

 M, (1/n)          21.483
 (dLV/dLP)t      -1.00104
 (dLV/dLT)p        1.0239
 Cp, KJ/(KG)(K)    2.1194
 GAMMAs            1.2352
 SON VEL,M/SEC     1093.2

 MOLE FRACTIONS

 *C              6.537-13
 *CH             1.159-12
 CH2             2.759-11
 CH3             8.609-10
 CH2OH           2.215-11
 CH3O            3.601-12
 CH4             2.8368-9
 CH3OH           1.304-11
 *CN             9.565-10
 CNN             1.378-16
 *CO             1.6559-1
 *CO2            2.7421-2
 COOH            1.5164-7
 C2H             5.119-15
 C2H2,acetylene  4.114-12
 C2H2,vinylidene 3.208-15
 CH2CO,ketene    1.895-11
 O(CH)2O         2.088-14
 HO(CO)2OH       4.786-16
 C2H3,vinyl      9.336-16
 CH3CN           5.259-15
 CH3CO,acetyl    8.430-15
 C2H4            6.554-15
 CH3CHO,ethanal  1.327-15
 CH3COOH         2.365-16
 OCCN            4.280-13
 C2N2            6.491-14
 C2O             1.950-12
 C3O2            2.973-14
 *H              3.2521-3
 HCN             9.8094-7
 HCO             8.6400-7
 HCCO            7.845-13
 HNC             1.0435-7
 HNCO            2.8617-7
 HNO             3.9072-8
 HNO2            4.821-10
 HNO3            1.024-15
 HO2             9.3397-9
 *H2             1.8956-1
 HCHO,formaldehy 1.4528-7
 HCOOH           1.3666-7
 H2O             1.9445-1
 H2O2            8.4170-9
 *N              5.6042-8
 NCO             3.1478-9
 *NH             1.0857-7
 NH2             4.4355-7
 NH3             6.3623-6
 NH2OH           6.381-11
 *NO             6.6096-5
 NO2             7.880-10
 *N2             4.1887-1
 NCN             3.598-14
 N2H2            3.617-11
 N2H4            1.566-14
 N2O             9.0539-9
 N3              3.675-13
 N3H             8.430-13
 *O              7.7592-6
 *OH             7.6130-4
 *O2             3.2637-6
 O3              7.271-15

  * THERMODYNAMIC PROPERTIES FITTED TO 20000.K









               THERMODYNAMIC EQUILIBRIUM PROPERTIES AT ASSIGNED

                            TEMPERATURE AND VOLUME

 CASE =                

             REACTANT                       MOLES         ENERGY      TEMP
                                                         KJ/KG-MOL      K
 FUEL        CH3OH                        1.0000000   -203352.771    300.000
 OXIDANT     O2                           1.5000000     -2439.995    300.000
 OXIDANT     N2                           5.6429000     -2440.472    300.000

 O/F=    2.38201  %FUEL= 29.568202  R,EQ.RATIO= 1.894737  PHI,EQ.RATIO= 2.700000

 THERMODYNAMIC PROPERTIES

 P, BAR            11.496
 T, K             2500.00
 RHO, KG/CU M    1.1750 0
 H, KJ/KG          243.95
 U, KJ/KG         -734.39
 G, KJ/KG        -28536.4
 S, KJ/(KG)(K)    11.5122

 M, (1/n)          21.246
 (dLV/dLP)t      -1.00104
 (dLV/dLT)p        1.0239
 Cp, KJ/(KG)(K)    2.1373
 GAMMAs            1.2360
 SON VEL,M/SEC     1099.6

 MOLE FRACTIONS

 *C              7.182-13
 *CH             1.313-12
 CH2             3.223-11
 CH3             1.0366-9
 CH2OH           2.490-11
 CH3O            4.047-12
 CH4             3.5218-9
 CH3OH           1.511-11
 *CN             1.0451-9
 CNN             1.497-16
 *CO             1.6981-1
 *CO2            2.6247-2
 COOH            1.4964-7
 C2H             6.442-15
 C2H2,acetylene  5.338-12
 C2H2,vinylidene 4.162-15
 CH2CO,ketene    2.295-11
 O(CH)2O         2.360-14
 HO(CO)2OH       4.713-16
 C2H3,vinyl      1.249-15
 CH3CN           6.997-15
 CH3CO,acetyl    1.053-14
 C2H4            9.040-15
 CH3CHO,ethanal  1.708-15
 CH3COOH         2.842-16
 OCCN            4.850-13
 C2N2            7.836-14
 C2O             2.221-12
 C3O2            3.512-14
 *H              3.3160-3
 HCN             1.1051-6
 HCO             9.1350-7
 HCCO            9.215-13
 HNC             1.1755-7
 HNCO            3.0090-7
 HNO             3.6982-8
 HNO2            4.259-10
 HNO3            8.441-16
 HO2             8.2967-9
 *H2             1.9929-1
 HCHO,formaldehy 1.5836-7
 HCOOH           1.3905-7
 H2O             1.9080-1
 H2O2            7.7090-9
 *N              5.5121-8
 NCO             3.2103-9
 *NH             1.1010-7
 NH2             4.6374-7
 NH3             6.8583-6
 NH2OH           6.420-11
 *NO             6.0678-5
 NO2             6.752-10
 *N2             4.0973-1
 NCN             3.910-14
 N2H2            3.760-11
 N2H4            1.731-14
 N2O             8.2662-9
 N3              3.575-13
 N3H             8.455-13
 *O              7.1625-6
 *OH             7.2456-4
 *O2             2.8120-6
 O3              5.847-15

  * THERMODYNAMIC PROPERTIES FITTED TO 20000.K









               THERMODYNAMIC EQUILIBRIUM PROPERTIES AT ASSIGNED

                            TEMPERATURE AND VOLUME

 CASE =                

             REACTANT                       MOLES         ENERGY      TEMP
                                                         KJ/KG-MOL      K
 FUEL        CH3OH                        1.0000000   -203352.771    300.000
 OXIDANT     O2                           1.5000000     -2439.995    300.000
 OXIDANT     N2                           5.6429000     -2440.472    300.000

 O/F=    2.29694  %FUEL= 30.331159  R,EQ.RATIO= 1.931034  PHI,EQ.RATIO= 2.800000

 THERMODYNAMIC PROPERTIES

 P, BAR            11.619
 T, K             2500.00
 RHO, KG/CU M    1.1750 0
 H, KJ/KG          278.63
 U, KJ/KG         -710.25
 G, KJ/KG        -28721.6
 S, KJ/(KG)(K)    11.6001

 M, (1/n)          21.020
 (dLV/dLP)t      -1.00105
 (dLV/dLT)p        1.0240
 Cp, KJ/(KG)(K)    2.1550
 GAMMAs            1.2367
 SON VEL,M/SEC     1105.9

 MOLE FRACTIONS

 *C              7.842-13
 *CH             1.475-12
 CH2             3.724-11
 CH3             1.2322-9
 CH2OH           2.774-11
 CH3O            4.509-12
 CH4             4.3066-9
 CH3OH           1.732-11
 *CN             1.1349-9
 CNN             1.617-16
 *CO             1.7380-1
 *CO2            2.5179-2
 COOH            1.4768-7
 C2H             7.986-15
 C2H2,acetylene  6.807-12
 C2H2,vinylidene 5.308-15
 CH2CO,ketene    2.743-11
 O(CH)2O         2.645-14
 HO(CO)2OH       4.639-16
 C2H3,vinyl      1.638-15
 CH3CN           9.129-15
 CH3CO,acetyl    1.294-14
 C2H4            1.220-14
 CH3CHO,ethanal  2.161-15
 CH3COOH         3.370-16
 OCCN            5.448-13
 C2N2            9.341-14
 C2O             2.509-12
 C3O2            4.104-14
 *H              3.3749-3
 HCN             1.2345-6
 HCO             9.6179-7
 HCCO            1.071-12
 HNC             1.3132-7
 HNCO            3.1509-7
 HNO             3.5089-8
 HNO2            3.788-10
 HNO3            7.037-16
 HO2             7.4191-9
 *H2             2.0866-1
 HCHO,formaldehy 1.7152-7
 HCOOH           1.4117-7
 H2O             1.8725-1
 H2O2            7.0915-9
 *N              5.4238-8
 NCO             3.2678-9
 *NH             1.1145-7
 NH2             4.8290-7
 NH3             7.3468-6
 NH2OH           6.447-11
 *NO             5.5965-5
 NO2             5.837-10
 *N2             4.0097-1
 NCN             4.223-14
 N2H2            3.895-11
 N2H4            1.897-14
 N2O             7.5827-9
 N3              3.479-13
 N3H             8.466-13
 *O              6.6422-6
 *OH             6.9122-4
 *O2             2.4443-6
 O3              4.764-15

  * THERMODYNAMIC PROPERTIES FITTED TO 20000.K









               THERMODYNAMIC EQUILIBRIUM PROPERTIES AT ASSIGNED

                            TEMPERATURE AND VOLUME

 CASE =                

             REACTANT                       MOLES         ENERGY      TEMP
                                                         KJ/KG-MOL      K
 FUEL        CH3OH                        1.0000000   -203352.771    300.000
 OXIDANT     O2                           1.5000000     -2439.995    300.000
 OXIDANT     N2                           5.6429000     -2440.472    300.000

 O/F=    2.21773  %FUEL= 31.077763  R,EQ.RATIO= 1.966102  PHI,EQ.RATIO= 2.900000

 THERMODYNAMIC PROPERTIES

 P, BAR            11.740
 T, K             2500.00
 RHO, KG/CU M    1.1750 0
 H, KJ/KG          312.51
 U, KJ/KG         -686.68
 G, KJ/KG        -28901.9
 S, KJ/(KG)(K)    11.6858

 M, (1/n)          20.803
 (dLV/dLP)t      -1.00105
 (dLV/dLT)p        1.0240
 Cp, KJ/(KG)(K)    2.1724
 GAMMAs            1.2374
 SON VEL,M/SEC     1111.9

 MOLE FRACTIONS

 *C              8.515-13
 *CH             1.645-12
 CH2             4.263-11
 CH3             1.4482-9
 CH2OH           3.068-11
 CH3O            4.986-12
 CH4             5.1965-9
 CH3OH           1.967-11
 *CN             1.2258-9
 CNN             1.737-16
 *CO             1.7756-1
 *CO2            2.4204-2
 COOH            1.4575-7
 C2H             9.769-15
 C2H2,acetylene  8.550-12
 C2H2,vinylidene 6.667-15
 CH2CO,ketene    3.242-11
 O(CH)2O         2.940-14
 HO(CO)2OH       4.566-16
 C2H3,vinyl      2.113-15
 CH3CN           1.171-14
 CH3CO,acetyl    1.570-14
 C2H4            1.615-14
 CH3CHO,ethanal  2.692-15
 CH3COOH         3.950-16
 OCCN            6.075-13
 C2N2            1.101-13
 C2O             2.812-12
 C3O2            4.749-14
 *H              3.4293-3
 HCN             1.3690-6
 HCO             1.0089-6
 HCCO            1.232-12
 HNC             1.4562-7
 HNCO            3.2874-7
 HNO             3.3366-8
 HNO2            3.389-10
 HNO3            5.924-16
 HO2             6.6736-9
 *H2             2.1768-1
 HCHO,formaldehy 1.8473-7
 HCOOH           1.4305-7
 H2O             1.8380-1
 H2O2            6.5493-9
 *N              5.3390-8
 NCO             3.3207-9
 *NH             1.1264-7
 NH2             5.0108-7
 NH3             7.8271-6
 NH2OH           6.462-11
 *NO             5.1833-5
 NO2             5.087-10
 *N2             3.9258-1
 NCN             4.536-14
 N2H2            4.019-11
 N2H4            2.064-14
 N2O             6.9851-9
 N3              3.388-13
 N3H             8.465-13
 *O              6.1850-6
 *OH             6.6084-4
 *O2             2.1415-6
 O3              3.927-15

  * THERMODYNAMIC PROPERTIES FITTED TO 20000.K









               THERMODYNAMIC EQUILIBRIUM PROPERTIES AT ASSIGNED

                            TEMPERATURE AND VOLUME

 CASE =                

             REACTANT                       MOLES         ENERGY      TEMP
                                                         KJ/KG-MOL      K
 FUEL        CH3OH                        1.0000000   -203352.771    300.000
 OXIDANT     O2                           1.5000000     -2439.995    300.000
 OXIDANT     N2                           5.6429000     -2440.472    300.000

 O/F=    2.14381  %FUEL= 31.808534  R,EQ.RATIO= 2.000000  PHI,EQ.RATIO= 3.000000

 THERMODYNAMIC PROPERTIES

 P, BAR            11.859
 T, K             2500.00
 RHO, KG/CU M    1.1750 0
 H, KJ/KG          345.63
 U, KJ/KG         -663.64
 G, KJ/KG        -29077.6
 S, KJ/(KG)(K)    11.7693

 M, (1/n)          20.595
 (dLV/dLP)t      -1.00106
 (dLV/dLT)p        1.0240
 Cp, KJ/(KG)(K)    2.1895
 GAMMAs            1.2381
 SON VEL,M/SEC     1117.8

 MOLE FRACTIONS

 *C              9.201-13
 *CH             1.821-12
 CH2             4.839-11
 CH3             1.6848-9
 CH2OH           3.369-11
 CH3O            5.476-12
 CH4             6.1963-9
 CH3OH           2.214-11
 *CN             1.3175-9
 CNN             1.857-16
 *CO             1.8114-1
 *CO2            2.3310-2
 COOH            1.4387-7
 C2H             1.181-14
 C2H2,acetylene  1.059-11
 C2H2,vinylidene 8.260-15
 CH2CO,ketene    3.792-11
 O(CH)2O         3.247-14
 HO(CO)2OH       4.494-16
 C2H3,vinyl      2.683-15
 CH3CN           1.479-14
 CH3CO,acetyl    1.883-14
 C2H4            2.102-14
 CH3CHO,ethanal  3.308-15
 CH3COOH         4.581-16
 OCCN            6.728-13
 C2N2            1.285-13
 C2O             3.132-12
 C3O2            5.449-14
 *H              3.4796-3
 HCN             1.5081-6
 HCO             1.0548-6
 HCCO            1.406-12
 HNC             1.6042-7
 HNCO            3.4189-7
 HNO             3.1792-8
 HNO2            3.049-10
 HNO3            5.030-16
 HO2             6.0349-9
 *H2             2.2638-1
 HCHO,formaldehy 1.9796-7
 HCOOH           1.4471-7
 H2O             1.8045-1
 H2O2            6.0701-9
 *N              5.2575-8
 NCO             3.3695-9
 *NH             1.1368-7
 NH2             5.1834-7
 NH3             8.2983-6
 NH2OH           6.468-11
 *NO             4.8186-5
 NO2             4.464-10
 *N2             3.8454-1
 NCN             4.850-14
 N2H2            4.136-11
 N2H4            2.231-14
 N2O             6.4591-9
 N3              3.301-13
 N3H             8.453-13
 *O              5.7805-6
 *OH             6.3301-4
 *O2             1.8895-6
 O3              3.271-15

  * THERMODYNAMIC PROPERTIES FITTED TO 20000.K









               THERMODYNAMIC EQUILIBRIUM PROPERTIES AT ASSIGNED

                            TEMPERATURE AND VOLUME

 CASE =                

             REACTANT                       MOLES         ENERGY      TEMP
                                                         KJ/KG-MOL      K
 FUEL        CH3OH                        1.0000000   -203352.771    300.000
 OXIDANT     O2                           1.5000000     -2439.995    300.000
 OXIDANT     N2                           5.6429000     -2440.472    300.000

 O/F=    2.07466  %FUEL= 32.523972  R,EQ.RATIO= 2.032787  PHI,EQ.RATIO= 3.100000

 THERMODYNAMIC PROPERTIES

 P, BAR            11.975
 T, K             2500.00
 RHO, KG/CU M    1.1750 0
 H, KJ/KG          378.03
 U, KJ/KG         -641.13
 G, KJ/KG        -29248.8
 S, KJ/(KG)(K)    11.8507

 M, (1/n)          20.396
 (dLV/dLP)t      -1.00106
 (dLV/dLT)p        1.0241
 Cp, KJ/(KG)(K)    2.2064
 GAMMAs            1.2387
 SON VEL,M/SEC     1123.6

 MOLE FRACTIONS

 *C              9.900-13
 *CH             2.005-12
 CH2             5.451-11
 CH3             1.9424-9
 CH2OH           3.678-11
 CH3O            5.978-12
 CH4             7.3105-9
 CH3OH           2.473-11
 *CN             1.4100-9
 CNN             1.977-16
 *CO             1.8453-1
 *CO2            2.2486-2
 COOH            1.4202-7
 C2H             1.413-14
 C2H2,acetylene  1.297-11
 C2H2,vinylidene 1.011-14
 CH2CO,ketene    4.394-11
 O(CH)2O         3.563-14
 HO(CO)2OH       4.422-16
 C2H3,vinyl      3.360-15
 CH3CN           1.843-14
 CH3CO,acetyl    2.233-14
 C2H4            2.694-14
 CH3CHO,ethanal  4.014-15
 CH3COOH         5.265-16
 OCCN            7.407-13
 C2N2            1.486-13
 C2O             3.466-12
 C3O2            6.204-14
 *H              3.5263-3
 HCN             1.6516-6
 HCO             1.0997-6
 HCCO            1.593-12
 HNC             1.7569-7
 HNCO            3.5455-7
 HNO             3.0347-8
 HNO2            2.755-10
 HNO3            4.305-16
 HO2             5.4836-9
 *H2             2.3476-1
 HCHO,formaldehy 2.1119-7
 HCOOH           1.4618-7
 H2O             1.7720-1
 H2O2            5.6442-9
 *N              5.1791-8
 NCO             3.4147-9
 *NH             1.1460-7
 NH2             5.3471-7
 NH3             8.7601-6
 NH2OH           6.465-11
 *NO             4.4947-5
 NO2             3.943-10
 *N2             3.7682-1
 NCN             5.163-14
 N2H2            4.244-11
 N2H4            2.397-14
 N2O             5.9933-9
 N3              3.218-13
 N3H             8.432-13
 *O              5.4205-6
 *OH             6.0744-4
 *O2             1.6777-6
 O3              2.750-15

  * THERMODYNAMIC PROPERTIES FITTED TO 20000.K









               THERMODYNAMIC EQUILIBRIUM PROPERTIES AT ASSIGNED

                            TEMPERATURE AND VOLUME

 CASE =                

             REACTANT                       MOLES         ENERGY      TEMP
                                                         KJ/KG-MOL      K
 FUEL        CH3OH                        1.0000000   -203352.771    300.000
 OXIDANT     O2                           1.5000000     -2439.995    300.000
 OXIDANT     N2                           5.6429000     -2440.472    300.000

 O/F=    2.00982  %FUEL= 33.224554  R,EQ.RATIO= 2.064516  PHI,EQ.RATIO= 3.200000

 THERMODYNAMIC PROPERTIES

 P, BAR            12.089
 T, K             2500.00
 RHO, KG/CU M    1.1750 0
 H, KJ/KG          409.71
 U, KJ/KG         -619.12
 G, KJ/KG        -29415.8
 S, KJ/(KG)(K)    11.9302

 M, (1/n)          20.204
 (dLV/dLP)t      -1.00107
 (dLV/dLT)p        1.0241
 Cp, KJ/(KG)(K)    2.2229
 GAMMAs            1.2393
 SON VEL,M/SEC     1129.2

 MOLE FRACTIONS

 *C              1.061-12
 *CH             2.196-12
 CH2             6.101-11
 CH3             2.2213-9
 CH2OH           3.994-11
 CH3O            6.491-12
 CH4             8.5431-9
 CH3OH           2.744-11
 *CN             1.5032-9
 CNN             2.097-16
 *CO             1.8777-1
 *CO2            2.1724-2
 COOH            1.4021-7
 C2H             1.673-14
 C2H2,acetylene  1.570-11
 C2H2,vinylidene 1.224-14
 CH2CO,ketene    5.051-11
 O(CH)2O         3.889-14
 HO(CO)2OH       4.351-16
 C2H3,vinyl      4.157-15
 CH3CN           2.268-14
 CH3CO,acetyl    2.623-14
 C2H4            3.406-14
 CH3CHO,ethanal  4.819-15
 CH3COOH         6.001-16
 OCCN            8.111-13
 C2N2            1.705-13
 C2O             3.815-12
 C3O2            7.015-14
 *H              3.5696-3
 HCN             1.7993-6
 HCO             1.1434-6
 HCCO            1.792-12
 HNC             1.9140-7
 HNCO            3.6674-7
 HNO             2.9016-8
 HNO2            2.502-10
 HNO3            3.711-16
 HO2             5.0043-9
 *H2             2.4285-1
 HCHO,formaldehy 2.2440-7
 HCOOH           1.4748-7
 H2O             1.7404-1
 H2O2            5.2637-9
 *N              5.1037-8
 NCO             3.4564-9
 *NH             1.1540-7
 NH2             5.5025-7
 NH3             9.2120-6
 NH2OH           6.455-11
 *NO             4.2056-5
 NO2             3.503-10
 *N2             3.6940-1
 NCN             5.476-14
 N2H2            4.345-11
 N2H4            2.562-14
 N2O             5.5786-9
 N3              3.138-13
 N3H             8.403-13
 *O              5.0983-6
 *OH             5.8384-4
 *O2             1.4983-6
 O3              2.332-15

  * THERMODYNAMIC PROPERTIES FITTED TO 20000.K









               THERMODYNAMIC EQUILIBRIUM PROPERTIES AT ASSIGNED

                            TEMPERATURE AND VOLUME

 CASE =                

             REACTANT                       MOLES         ENERGY      TEMP
                                                         KJ/KG-MOL      K
 FUEL        CH3OH                        1.0000000   -203352.771    300.000
 OXIDANT     O2                           1.5000000     -2439.995    300.000
 OXIDANT     N2                           5.6429000     -2440.472    300.000

 O/F=    1.94892  %FUEL= 33.910737  R,EQ.RATIO= 2.095238  PHI,EQ.RATIO= 3.300000

 THERMODYNAMIC PROPERTIES

 P, BAR            12.200
 T, K             2500.00
 RHO, KG/CU M    1.1750 0
 H, KJ/KG          440.72
 U, KJ/KG         -597.59
 G, KJ/KG        -29578.7
 S, KJ/(KG)(K)    12.0078

 M, (1/n)          20.019
 (dLV/dLP)t      -1.00107
 (dLV/dLT)p        1.0242
 Cp, KJ/(KG)(K)    2.2391
 GAMMAs            1.2399
 SON VEL,M/SEC     1134.6

 MOLE FRACTIONS

 *C              1.133-12
 *CH             2.393-12
 CH2             6.786-11
 CH3             2.5217-9
 CH2OH           4.315-11
 CH3O            7.014-12
 CH4             9.8980-9
 CH3OH           3.026-11
 *CN             1.5969-9
 CNN             2.216-16
 *CO             1.9085-1
 *CO2            2.1017-2
 COOH            1.3844-7
 C2H             1.965-14
 C2H2,acetylene  1.882-11
 C2H2,vinylidene 1.467-14
 CH2CO,ketene    5.763-11
 O(CH)2O         4.223-14
 HO(CO)2OH       4.281-16
 C2H3,vinyl      5.086-15
 CH3CN           2.760-14
 CH3CO,acetyl    3.054-14
 C2H4            4.253-14
 CH3CHO,ethanal  5.727-15
 CH3COOH         6.788-16
 OCCN            8.839-13
 C2N2            1.942-13
 C2O             4.179-12
 C3O2            7.882-14
 *H              3.6099-3
 HCN             1.9509-6
 HCO             1.1862-6
 HCCO            2.003-12
 HNC             2.0752-7
 HNCO            3.7848-7
 HNO             2.7787-8
 HNO2            2.280-10
 HNO3            3.220-16
 HO2             4.5851-9
 *H2             2.5065-1
 HCHO,formaldehy 2.3757-7
 HCOOH           1.4862-7
 H2O             1.7098-1
 H2O2            4.9221-9
 *N              5.0311-8
 NCO             3.4950-9
 *NH             1.1610-7
 NH2             5.6500-7
 NH3             9.6538-6
 NH2OH           6.439-11
 *NO             3.9461-5
 NO2             3.129-10
 *N2             3.6227-1
 NCN             5.787-14
 N2H2            4.438-11
 N2H4            2.726-14
 N2O             5.2074-9
 N3              3.062-13
 N3H             8.367-13
 *O              4.8085-6
 *OH             5.6200-4
 *O2             1.3451-6
 O3              1.993-15

  * THERMODYNAMIC PROPERTIES FITTED TO 20000.K









               THERMODYNAMIC EQUILIBRIUM PROPERTIES AT ASSIGNED

                            TEMPERATURE AND VOLUME

 CASE =                

             REACTANT                       MOLES         ENERGY      TEMP
                                                         KJ/KG-MOL      K
 FUEL        CH3OH                        1.0000000   -203352.771    300.000
 OXIDANT     O2                           1.5000000     -2439.995    300.000
 OXIDANT     N2                           5.6429000     -2440.472    300.000

 O/F=    1.89160  %FUEL= 34.582961  R,EQ.RATIO= 2.125000  PHI,EQ.RATIO= 3.400000

 THERMODYNAMIC PROPERTIES

 P, BAR            12.309
 T, K             2500.00
 RHO, KG/CU M    1.1750 0
 H, KJ/KG          471.07
 U, KJ/KG         -576.52
 G, KJ/KG        -29737.8
 S, KJ/(KG)(K)    12.0835

 M, (1/n)          19.842
 (dLV/dLP)t      -1.00107
 (dLV/dLT)p        1.0242
 Cp, KJ/(KG)(K)    2.2550
 GAMMAs            1.2405
 SON VEL,M/SEC     1140.0

 MOLE FRACTIONS

 *C              1.206-12
 *CH             2.597-12
 CH2             7.506-11
 CH3             2.8436-9
 CH2OH           4.642-11
 CH3O            7.546-12
 CH4             1.1379-8
 CH3OH           3.319-11
 *CN             1.6910-9
 CNN             2.335-16
 *CO             1.9379-1
 *CO2            2.0359-2
 COOH            1.3672-7
 C2H             2.290-14
 C2H2,acetylene  2.235-11
 C2H2,vinylidene 1.743-14
 CH2CO,ketene    6.531-11
 O(CH)2O         4.566-14
 HO(CO)2OH       4.212-16
 C2H3,vinyl      6.159-15
 CH3CN           3.325-14
 CH3CO,acetyl    3.528-14
 C2H4            5.251-14
 CH3CHO,ethanal  6.745-15
 CH3COOH         7.627-16
 OCCN            9.589-13
 C2N2            2.197-13
 C2O             4.557-12
 C3O2            8.806-14
 *H              3.6474-3
 HCN             2.1060-6
 HCO             1.2279-6
 HCCO            2.227-12
 HNC             2.2403-7
 HNCO            3.8978-7
 HNO             2.6647-8
 HNO2            2.086-10
 HNO3            2.810-16
 HO2             4.2163-9
 *H2             2.5818-1
 HCHO,formaldehy 2.5071-7
 HCOOH           1.4962-7
 H2O             1.6802-1
 H2O2            4.6142-9
 *N              4.9611-8
 NCO             3.5308-9
 *NH             1.1671-7
 NH2             5.7900-7
 NH3             1.0085-5
 NH2OH           6.418-11
 *NO             3.7121-5
 NO2             2.808-10
 *N2             3.5540-1
 NCN             6.097-14
 N2H2            4.525-11
 N2H4            2.889-14
 N2O             4.8737-9
 N3              2.988-13
 N3H             8.325-13
 *O              4.5466-6
 *OH             5.4172-4
 *O2             1.2133-6
 O3              1.715-15

  * THERMODYNAMIC PROPERTIES FITTED TO 20000.K









               THERMODYNAMIC EQUILIBRIUM PROPERTIES AT ASSIGNED

                            TEMPERATURE AND VOLUME

 CASE =                

             REACTANT                       MOLES         ENERGY      TEMP
                                                         KJ/KG-MOL      K
 FUEL        CH3OH                        1.0000000   -203352.771    300.000
 OXIDANT     O2                           1.5000000     -2439.995    300.000
 OXIDANT     N2                           5.6429000     -2440.472    300.000

 O/F=    1.83755  %FUEL= 35.241648  R,EQ.RATIO= 2.153846  PHI,EQ.RATIO= 3.500000

 THERMODYNAMIC PROPERTIES

 P, BAR            12.416
 T, K             2500.00
 RHO, KG/CU M    1.1750 0
 H, KJ/KG          500.79
 U, KJ/KG         -555.90
 G, KJ/KG        -29893.0
 S, KJ/(KG)(K)    12.1575

 M, (1/n)          19.671
 (dLV/dLP)t      -1.00108
 (dLV/dLT)p        1.0242
 Cp, KJ/(KG)(K)    2.2706
 GAMMAs            1.2410
 SON VEL,M/SEC     1145.1

 MOLE FRACTIONS

 *C              1.280-12
 *CH             2.807-12
 CH2             8.261-11
 CH3             3.1872-9
 CH2OH           4.974-11
 CH3O            8.085-12
 CH4             1.2988-8
 CH3OH           3.621-11
 *CN             1.7856-9
 CNN             2.453-16
 *CO             1.9661-1
 *CO2            1.9745-2
 COOH            1.3503-7
 C2H             2.650-14
 C2H2,acetylene  2.633-11
 C2H2,vinylidene 2.053-14
 CH2CO,ketene    7.356-11
 O(CH)2O         4.916-14
 HO(CO)2OH       4.145-16
 C2H3,vinyl      7.390-15
 CH3CN           3.970-14
 CH3CO,acetyl    4.047-14
 C2H4            6.416-14
 CH3CHO,ethanal  7.878-15
 CH3COOH         8.517-16
 OCCN            1.036-12
 C2N2            2.471-13
 C2O             4.949-12
 C3O2            9.786-14
 *H              3.6825-3
 HCN             2.2646-6
 HCO             1.2686-6
 HCCO            2.463-12
 HNC             2.4090-7
 HNCO            4.0068-7
 HNO             2.5589-8
 HNO2            1.915-10
 HNO3            2.466-16
 HO2             3.8901-9
 *H2             2.6545-1
 HCHO,formaldehy 2.6378-7
 HCOOH           1.5049-7
 H2O             1.6514-1
 H2O2            4.3354-9
 *N              4.8936-8
 NCO             3.5640-9
 *NH             1.1724-7
 NH2             5.9230-7
 NH3             1.0507-5
 NH2OH           6.391-11
 *NO             3.5004-5
 NO2             2.531-10
 *N2             3.4880-1
 NCN             6.405-14
 N2H2            4.605-11
 N2H4            3.049-14
 N2O             4.5725-9
 N3              2.918-13
 N3H             8.279-13
 *O              4.3090-6
 *OH             5.2283-4
 *O2             1.0992-6
 O3              1.485-15

  * THERMODYNAMIC PROPERTIES FITTED TO 20000.K









               THERMODYNAMIC EQUILIBRIUM PROPERTIES AT ASSIGNED

                            TEMPERATURE AND VOLUME

 CASE =                

             REACTANT                       MOLES         ENERGY      TEMP
                                                         KJ/KG-MOL      K
 FUEL        CH3OH                        1.0000000   -203352.771    300.000
 OXIDANT     O2                           1.5000000     -2439.995    300.000
 OXIDANT     N2                           5.6429000     -2440.472    300.000

 O/F=    1.78651  %FUEL= 35.887203  R,EQ.RATIO= 2.181818  PHI,EQ.RATIO= 3.600000

 THERMODYNAMIC PROPERTIES

 P, BAR            12.521
 T, K             2500.00
 RHO, KG/CU M    1.1750 0
 H, KJ/KG          529.89
 U, KJ/KG         -535.71
 G, KJ/KG        -30044.7
 S, KJ/(KG)(K)    12.2298

 M, (1/n)          19.507
 (dLV/dLP)t      -1.00108
 (dLV/dLT)p        1.0243
 Cp, KJ/(KG)(K)    2.2859
 GAMMAs            1.2415
 SON VEL,M/SEC     1150.2

 MOLE FRACTIONS

 *C              1.354-12
 *CH             3.022-12
 CH2             9.051-11
 CH3             3.5525-9
 CH2OH           5.310-11
 CH3O            8.631-12
 CH4             1.4728-8
 CH3OH           3.933-11
 *CN             1.8804-9
 CNN             2.570-16
 *CO             1.9930-1
 *CO2            1.9171-2
 COOH            1.3338-7
 C2H             3.045-14
 C2H2,acetylene  3.079-11
 C2H2,vinylidene 2.401-14
 CH2CO,ketene    8.239-11
 O(CH)2O         5.273-14
 HO(CO)2OH       4.078-16
 C2H3,vinyl      8.792-15
 CH3CN           4.699-14
 CH3CO,acetyl    4.611-14
 C2H4            7.765-14
 CH3CHO,ethanal  9.133-15
 CH3COOH         9.456-16
 OCCN            1.115-12
 C2N2            2.763-13
 C2O             5.355-12
 C3O2            1.082-13
 *H              3.7152-3
 HCN             2.4264-6
 HCO             1.3083-6
 HCCO            2.711-12
 HNC             2.5811-7
 HNCO            4.1117-7
 HNO             2.4603-8
 HNO2            1.763-10
 HNO3            2.175-16
 HO2             3.6003-9
 *H2             2.7247-1
 HCHO,formaldehy 2.7678-7
 HCOOH           1.5124-7
 H2O             1.6235-1
 H2O2            4.0822-9
 *N              4.8284-8
 NCO             3.5948-9
 *NH             1.1769-7
 NH2             6.0493-7
 NH3             1.0917-5
 NH2OH           6.361-11
 *NO             3.3079-5
 NO2             2.291-10
 *N2             3.4243-1
 NCN             6.712-14
 N2H2            4.680-11
 N2H4            3.208-14
 N2O             4.2995-9
 N3              2.851-13
 N3H             8.228-13
 *O              4.0925-6
 *OH             5.0521-4
 *O2             9.9993-7
 O3              1.294-15

  * THERMODYNAMIC PROPERTIES FITTED TO 20000.K



