 *******************************************************************************

         NASA-GLENN CHEMICAL EQUILIBRIUM PROGRAM CEA2, FEBRUARY 5, 2004
                   BY  BONNIE MCBRIDE AND SANFORD GORDON
      REFS: NASA RP-1311, PART I, 1994 AND NASA RP-1311, PART II, 1996

 *******************************************************************************



  
 ### CEA analysis performed on Mon 11-Jul-2022 13:44:00
  
 # Problem Type: "Combustion at Assigned Volume"
  
 prob case=test___________6313 uv
  
 # Density (1 value):
 rho,kg/m**3= 1.0358
  
 # Equivalence based on Fuel/Oxid. wt ratio (Eq 9.19*) (1 value):
 phi= 3.5
  
 # You selected the following fuels and oxidizers:
 reac
 fuel CH4              mole=100.0000  t,k= 300.000
 oxid Air              mole=100.0000  t,k= 300.000
  
 # You selected these options for output:
 # short version of output
 output short
 # Proportions of any products will be expressed as Mole Fractions.
 # Heat will be expressed as siunits
 output siunits
 # Trace variable:
 output trace=1e-16
  
 # Input prepared by this script:/var/www/sites/cearun.grc.nasa.gov/cgi-bin/CEARU
 N/prepareInputFile.cgi
  
 ### IMPORTANT:  The following line is the end of your CEA input file!
 end




         THERMODYNAMIC EQUILIBRIUM COMBUSTION PROPERTIES AT ASSIGNED

                                     VOLUME

 CASE = test___________

             REACTANT                       MOLES         ENERGY      TEMP
                                                         KJ/KG-MOL      K
 FUEL        CH4                        100.0000000    -77028.260    300.000
 OXIDANT     Air                        100.0000000     -2566.042    300.000

 O/F=    4.92529  %FUEL= 16.876805  R,EQ.RATIO= 3.496199  PHI,EQ.RATIO= 3.500000

 THERMODYNAMIC PROPERTIES

 P, BAR            5.0072
 T, K             1105.70
 RHO, KG/CU M    1.0358 0
 H, KJ/KG         -400.57
 U, KJ/KG         -883.98
 G, KJ/KG        -12598.3
 S, KJ/(KG)(K)    11.0317

 M, (1/n)          19.018
 (dLV/dLP)t      -1.03536
 (dLV/dLT)p        1.4540
 Cp, KJ/(KG)(K)    4.3777
 GAMMAs            1.2133
 SON VEL,M/SEC      765.8

 MOLE FRACTIONS

 *Ar             5.1111-3
 CH3             6.6458-9
 CH2OH           8.307-14
 CH3O            1.335-15
 CH4             1.5715-2
 CH3OH           4.2406-9
 *CO             1.6997-1
 *CO2            1.4541-2
 COOH            1.461-12
 C2H2,acetylene  3.2679-9
 CH2CO,ketene    7.9817-9
 O(CH)2O         2.707-15
 C2H3,vinyl      1.453-14
 CH3CN           6.3518-8
 CH3CO,acetyl    3.068-13
 C2H4            3.3699-7
 C2H4O,ethylen-o 2.412-16
 CH3CHO,ethanal  8.341-10
 CH3COOH         2.005-11
 C2H5            2.482-12
 C2H6            2.9901-7
 C2H5OH          1.285-12
 CH3OCH3         9.102-16
 C2N2            1.232-13
 C3H3,2-propynl  4.045-15
 C3H4,allene     1.080-12
 C3H4,propyne    3.716-12
 C3H5,allyl      4.790-14
 C3H6,propylene  1.609-10
 C3H6,cyclo-     1.070-13
 C3H6O,acetone   3.969-13
 C3H6O,propanal  4.339-14
 C3H7,n-propyl   1.513-16
 C3H7,i-propyl   2.193-16
 C3H8            2.070-11
 C3H8O,2propanol 1.507-16
 C3O2            5.382-14
 C4H6,butadiene  3.193-14
 C4H6,1butyne    2.712-16
 C4H6,2butyne    6.713-16
 C4H8,1-butene   1.048-14
 C4H8,cis2-buten 7.033-15
 C4H8,tr2-butene 8.027-15
 C4H8,isobutene  1.146-14
 C4H10,n-butane  1.414-15
 C4H10,isobutane 6.805-16
 C5H6,1,3cyclo-  2.595-16
 C6H6            1.302-14
 *H              7.6269-9
 HCN             8.9622-6
 HCO             8.391-11
 HCCO            3.271-16
 HNC             2.1543-8
 HNCO            2.5475-7
 *H2             3.3846-1
 HCHO,formaldehy 1.5027-7
 HCOOH           2.2516-8
 H2O             2.9939-2
 NCO             6.108-16
 NH2             7.504-12
 NH3             1.9894-4
 *NO             8.591-15
 *N2             4.2605-1
 *OH             3.902-12

  * THERMODYNAMIC PROPERTIES FITTED TO 20000.K

