*******************************************************************************

         NASA-GLENN CHEMICAL EQUILIBRIUM PROGRAM CEA2, FEBRUARY 5, 2004
                   BY  BONNIE MCBRIDE AND SANFORD GORDON
      REFS: NASA RP-1311, PART I, 1994 AND NASA RP-1311, PART II, 1996

 *******************************************************************************



  
 ### CEA analysis performed on Mon 11-Jul-2022 13:28:21
  
 # Problem Type: "Combustion at Assigned Volume"
  
 prob case=test___________5469 uv
  
 # Density (1 value):
 rho,kg/m**3= 1.1314
  
 # Equivalence based on Fuel/Oxid. wt ratio (Eq 9.19*) (1 value):
 phi= 0.9
  
 # You selected the following fuels and oxidizers:
 reac
 fuel CH4              mole=100.0000  t,k= 300.000
 oxid Air              mole=100.0000  t,k= 300.000
  
 # You selected these options for output:
 # short version of output
 output short
 # Proportions of any products will be expressed as Mole Fractions.
 # Heat will be expressed as siunits
 output siunits
 # Trace variable:
 output trace=1e-16
  
 # Input prepared by this script:/var/www/sites/cearun.grc.nasa.gov/cgi-bin/CEARU
 N/prepareInputFile.cgi
  
 ### IMPORTANT:  The following line is the end of your CEA input file!
 end




         THERMODYNAMIC EQUILIBRIUM COMBUSTION PROPERTIES AT ASSIGNED

                                     VOLUME

 CASE = test___________

             REACTANT                       MOLES         ENERGY      TEMP
                                                         KJ/KG-MOL      K
 FUEL        CH4                        100.0000000    -77028.260    300.000
 OXIDANT     Air                        100.0000000     -2566.042    300.000

 O/F=   19.15391  %FUEL=  4.961816  R,EQ.RATIO= 0.900152  PHI,EQ.RATIO= 0.900000

 THERMODYNAMIC PROPERTIES

 P, BAR            8.5326
 T, K             2507.65
 RHO, KG/CU M    1.1314 0
 H, KJ/KG          431.72
 U, KJ/KG         -322.44
 G, KJ/KG        -22970.6
 S, KJ/(KG)(K)     9.3324

 M, (1/n)          27.646
 (dLV/dLP)t      -1.00303
 (dLV/dLT)p        1.0804
 Cp, KJ/(KG)(K)    2.1811
 GAMMAs            1.1876
 SON VEL,M/SEC      946.4

 MOLE FRACTIONS

 *Ar             8.4951-3
 *C              5.087-16
 CH2             2.053-16
 CH3             6.194-16
 CH2OH           1.023-15
 CH3O            1.673-16
 CH4             1.982-16
 *CN             8.023-13
 *CO             7.4907-3
 *CO2            7.8307-2
 COOH            4.4554-8
 *H              4.4914-4
 HCN             7.890-11
 HCO             4.0059-9
 HNC             8.470-12
 HNCO            1.4580-9
 HNO             3.9156-7
 HNO2            3.0937-7
 HNO3            4.287-11
 HO2             5.3962-6
 *H2             2.5376-3
 HCHO,formaldehy 6.603-11
 HCOOH           3.9333-9
 H2O             1.6489-1
 H2O2            4.7692-7
 *N              9.0068-8
 NCO             1.661-10
 *NH             1.7175-8
 NH2             6.8570-9
 NH3             9.5192-9
 NH2OH           6.285-12
 *NO             6.5940-3
 NO2             5.1262-6
 NO3             1.128-11
 *N2             7.0501-1
 N2O             1.0485-6
 N2H2            6.317-13
 NH2NO2          1.210-16
 N2O3            4.239-13
 N3              7.421-13
 N3H             1.671-13
 *O              7.0560-4
 *OH             6.7171-3
 *O2             1.8789-2
 O3              2.8152-9

  * THERMODYNAMIC PROPERTIES FITTED TO 20000.K




