*******************************************************************************

         NASA-GLENN CHEMICAL EQUILIBRIUM PROGRAM CEA2, FEBRUARY 5, 2004
                   BY  BONNIE MCBRIDE AND SANFORD GORDON
      REFS: NASA RP-1311, PART I, 1994 AND NASA RP-1311, PART II, 1996

 *******************************************************************************



  
 ### CEA analysis performed on Mon 11-Jul-2022 13:39:28
  
 # Problem Type: "Combustion at Assigned Volume"
  
 prob case=test___________5469 uv
  
 # Density (1 value):
 rho,kg/m**3= 1.0643
  
 # Equivalence based on Fuel/Oxid. wt ratio (Eq 9.19*) (1 value):
 phi= 2.6
  
 # You selected the following fuels and oxidizers:
 reac
 fuel CH4              mole=100.0000  t,k= 300.000
 oxid Air              mole=100.0000  t,k= 300.000
  
 # You selected these options for output:
 # short version of output
 output short
 # Proportions of any products will be expressed as Mole Fractions.
 # Heat will be expressed as siunits
 output siunits
 # Trace variable:
 output trace=1e-16
  
 # Input prepared by this script:/var/www/sites/cearun.grc.nasa.gov/cgi-bin/CEARU
 N/prepareInputFile.cgi
  
 ### IMPORTANT:  The following line is the end of your CEA input file!
 end




         THERMODYNAMIC EQUILIBRIUM COMBUSTION PROPERTIES AT ASSIGNED

                                     VOLUME

 CASE = test___________

             REACTANT                       MOLES         ENERGY      TEMP
                                                         KJ/KG-MOL      K
 FUEL        CH4                        100.0000000    -77028.260    300.000
 OXIDANT     Air                        100.0000000     -2566.042    300.000

 O/F=    6.63020  %FUEL= 13.105815  R,EQ.RATIO= 2.597567  PHI,EQ.RATIO= 2.600000

 THERMODYNAMIC PROPERTIES

 P, BAR            6.4644
 T, K             1514.92
 RHO, KG/CU M    1.0643 0
 H, KJ/KG         -98.872
 U, KJ/KG         -706.26
 G, KJ/KG        -16383.8
 S, KJ/(KG)(K)    10.7497

 M, (1/n)          20.738
 (dLV/dLP)t      -1.00006
 (dLV/dLT)p        1.0004
 Cp, KJ/(KG)(K)    1.7420
 GAMMAs            1.2992
 SON VEL,M/SEC      888.3

 MOLE FRACTIONS

 *Ar             5.8262-3
 CH2             3.078-14
 CH3             1.9376-9
 CH2OH           9.344-13
 CH3O            4.282-14
 CH4             5.8632-6
 CH3OH           1.771-10
 *CN             2.156-13
 *CO             1.5317-1
 *CO2            1.6433-2
 COOH            3.083-10
 C2H2,acetylene  8.253-11
 C2H2,vinylidene 2.366-16
 CH2CO,ketene    2.622-10
 O(CH)2O         4.080-15
 C2H3,vinyl      2.375-15
 CH3CN           1.382-11
 CH3CO,acetyl    2.991-14
 C2H4            3.496-11
 CH3CHO,ethanal  6.864-13
 CH3COOH         3.831-14
 C2H5            1.650-15
 C2H6            4.661-13
 C2H5OH          1.237-16
 OCCN            1.503-15
 C2N2            6.234-14
 C2O             6.726-16
 C3H4,propyne    1.372-16
 C3O2            2.047-14
 *H              4.2514-6
 HCN             2.6389-6
 HCO             6.2818-9
 HCCO            9.356-15
 HNC             3.9991-8
 HNCO            2.2120-7
 HNO             2.241-13
 HO2             1.315-16
 *H2             2.6376-1
 HCHO,formaldehy 1.1627-7
 HCOOH           3.7218-8
 H2O             7.4998-2
 H2O2            1.121-14
 *N              2.429-14
 NCO             9.345-13
 *NH             1.941-12
 NH2             1.5800-9
 NH3             3.6351-5
 NH2OH           3.296-14
 *NO             5.801-10
 *N2             4.8576-1
 N2O             7.318-14
 N2H2            4.308-14
 N2H4            6.788-16
 *O              5.018-13
 *OH             4.2685-8
 *O2             6.626-14

  * THERMODYNAMIC PROPERTIES FITTED TO 20000.K


