
 *******************************************************************************

         NASA-GLENN CHEMICAL EQUILIBRIUM PROGRAM CEA2, MAY 21, 2004
                   BY  BONNIE MCBRIDE AND SANFORD GORDON
      REFS: NASA RP-1311, PART I, 1994 AND NASA RP-1311, PART II, 1996

 *******************************************************************************



 prob
 ions shock inc ref eq u1=704,831,903,982,1067,1159,1260 t,k=300,300,300,300,300,
 300,300 p,bar=1,1,1,1,1,1,1
 react
   name=Air moles=1 t,k=300
 output
      trace=1e-16 siunits short
 end




                         SHOCK WAVE PARAMETERS ASSUMING

                 EQUILIBRIUM COMPOSITION FOR INCIDENT SHOCKED CONDITIONS


 CASE =                

             REACTANT                       MOLES         ENERGY      TEMP
                                                         KJ/KG-MOL      K
 NAME        Air                          1.0000000       -71.689    300.000

 O/F=    0.00000  %FUEL=  0.000000  R,EQ.RATIO= 0.001521  PHI,EQ.RATIO= 0.000000

 INITIAL GAS (1)
 MACH NUMBER1      2.0276   2.3934   2.6007   2.8282   3.0731   3.3380   3.6289
 U1, M/SEC         704.00   831.00   903.00   982.00  1067.00  1159.00  1260.00
 P, BAR            1.0000   1.0000   1.0000   1.0000   1.0000   1.0000   1.0000
 T, K              300.00   300.00   300.00   300.00   300.00   300.00   300.00
 RHO, KG/CU M    1.1612 0 1.1612 0 1.1612 0 1.1612 0 1.1612 0 1.1612 0 1.1612 0
 H, KJ/KG         -2.4750  -2.4750  -2.4750  -2.4750  -2.4750  -2.4750  -2.4750
 U, KJ/KG         -88.591  -88.591  -88.591  -88.591  -88.591  -88.591  -88.591
 G, KJ/KG        -2063.60 -2063.60 -2063.60 -2063.60 -2063.60 -2063.60 -2063.60
 S, KJ/(KG)(K)     6.8704   6.8704   6.8704   6.8704   6.8704   6.8704   6.8704

 M, (1/n)          28.965   28.965   28.965   28.965   28.965   28.965   28.965
 Cp, KJ/(KG)(K)    1.0048   1.0048   1.0048   1.0048   1.0048   1.0048   1.0048
 GAMMAs            1.3999   1.3999   1.3999   1.3999   1.3999   1.3999   1.3999
 SON VEL,M/SEC      347.2    347.2    347.2    347.2    347.2    347.2    347.2

 SHOCKED GAS (5)--REFLECTED--EQUILIBRIUM
 U5, M/SEC         192.67   219.76   233.68   248.24   263.33   279.11   295.85
 P, BAR            15.716   26.714   34.428   44.158   56.135   70.890   89.262
 T, K              747.92   943.83  1064.06  1203.56  1362.40  1544.04  1754.14
 RHO, KG/CU M    7.3201 0 9.8602 0 1.1272e1 1.2782e1 1.4354e1 1.5995e1 1.7728e1
 H, KJ/KG          462.54   679.83   817.23   980.11  1169.69  1391.67  1655.40
 U, KJ/KG          247.85   408.90   511.79   634.63   778.62   948.47  1151.89
 G, KJ/KG        -4789.64 -6047.76 -6835.63 -7763.15 -8835.08 -10079.7 -11541.7
 S, KJ/(KG)(K)     7.0224   7.1279   7.1921   7.2645   7.3435   7.4294   7.5234

 M, (1/n)          28.965   28.965   28.965   28.965   28.966   28.966   28.966
 (dLV/dLP)t      -1.00000 -1.00000 -1.00000 -1.00001 -1.00001 -1.00002 -1.00002
 (dLV/dLT)p        1.0000   1.0000   1.0000   1.0000   0.9999   0.9999   0.9999
 Cp, KJ/(KG)(K)    1.0865   1.1306   1.1547   1.1800   1.2069   1.2373   1.2732
 GAMMAs            1.3590   1.3403   1.3308   1.3214   1.3120   1.3020   1.2910
 SON VEL,M/SEC      540.2    602.6    637.6    675.7    716.3    759.6    806.2

 P5/P2              3.385    4.080    4.429    4.780    5.123    5.459    5.791
 T5/T2              1.463    1.559    1.603    1.643    1.679    1.711    1.739
 M5/M2             1.0000   1.0000   1.0000   1.0000   1.0000   1.0000   1.0000
 RHO5/RHO2         2.3131   2.6163   2.7640   2.9100   3.0517   3.1906   3.3299
 U5+V2,M/SEC       253.00   355.19   412.20   474.14   540.26   611.42   689.32
 V2, M/SEC         445.67   574.95   645.87   722.38   803.58   890.53   985.17


 MOLE FRACTIONS

 *Ar             9.3650-3 9.3650-3 9.3651-3 9.3651-3 9.3652-3 9.3653-3 9.3654-3
 *CO             1.112-19 1.085-15 5.591-14 1.989-12 4.685-11 7.698-10 9.349 -9
 *CO2            3.1900-4 3.1900-4 3.1903-4 3.1901-4 3.1901-4 3.1901-4 3.1901-4
 *N              2.763-31 1.672-24 1.406-21 6.434-19 1.490-16 1.903-14 1.478-12
 *NO             7.6516-7 1.6164-5 6.0279-5 1.9969-4 5.7930-4 1.4960-3 3.5024-3
 *NO+            8.621-29 9.498-24 1.497-21 1.648-19 1.255-17 6.859-16 2.720-14
 NO2             1.7267-6 6.8316-6 1.2560-5 2.2121-5 3.7048-5 5.9389-5 9.1794-5
 NO2-            7.198-32 2.396-25 1.500-22 4.821-20 7.097-18 5.334-16 2.389-14
 NO3             1.643-13 3.085-12 1.140-11 3.865-11 1.181-10 3.296-10 8.542-10
 NO3-            8.614-29 9.258-24 1.347-21 1.166-19 5.440-18 1.494-16 2.759-15
 *N2             7.8084-1 7.8083-1 7.8081-1 7.8074-1 7.8055-1 7.8008-1 7.7908-1
 N2O             3.587-10 7.278 -9 2.729 -8 9.250 -8 2.790 -7 7.607 -7 1.910 -6
 N2O3            1.076-15 4.779-14 2.604-13 1.271-12 5.438-12 2.076-11 7.219-11
 N2O4            4.350-16 2.101-15 4.519-15 9.663-15 2.026-14 4.179-14 8.540-14
 N2O5            1.211-18 8.305-18 2.105-17 5.278-17 1.287-16 3.072-16 7.228-16
 N3              3.761-34 1.030-27 6.304-25 2.205-22 4.108-20 4.424-18 3.021-16
 *O              6.603-16 2.284-12 7.651-11 1.861 -9 3.165 -8 3.934 -7 3.759 -6
 *O2             2.0947-1 2.0946-1 2.0943-1 2.0936-1 2.0915-1 2.0867-1 2.0764-1
 O2-             0.000  0 1.063-30 5.361-27 1.138-23 8.886-21 2.921-18 4.869-16
 O3              1.173-14 1.770-12 1.573-11 1.166-10 7.035-10 3.541 -9 1.533 -8

  * THERMODYNAMIC PROPERTIES FITTED TO 20000.K



