
 *******************************************************************************

         NASA-GLENN CHEMICAL EQUILIBRIUM PROGRAM CEA2, MAY 21, 2004
                   BY  BONNIE MCBRIDE AND SANFORD GORDON
      REFS: NASA RP-1311, PART I, 1994 AND NASA RP-1311, PART II, 1996

 *******************************************************************************



 prob
 ions shock inc ref eq u1=1369,1487,1616,1756,1908,2073,2253,2448 t,k=300,300,300
 ,300,300,300,300,300 p,bar=1,1,1,1,1,1,1,1
 react
   name=Air moles=1 t,k=300
 output
      trace=1e-16 siunits short
 end




                         SHOCK WAVE PARAMETERS ASSUMING

                 EQUILIBRIUM COMPOSITION FOR INCIDENT SHOCKED CONDITIONS


 CASE =                

             REACTANT                       MOLES         ENERGY      TEMP
                                                         KJ/KG-MOL      K
 NAME        Air                          1.0000000       -71.689    300.000

 O/F=    0.00000  %FUEL=  0.000000  R,EQ.RATIO= 0.001521  PHI,EQ.RATIO= 0.000000

 INITIAL GAS (1)
 MACH NUMBER1      3.9428   4.2827   4.6542   5.0574   5.4952   5.9704   6.4888   7.0505
 U1, M/SEC        1369.00  1487.00  1616.00  1756.00  1908.00  2073.00  2253.00  2448.00
 P, BAR            1.0000   1.0000   1.0000   1.0000   1.0000   1.0000   1.0000   1.0000
 T, K              300.00   300.00   300.00   300.00   300.00   300.00   300.00   300.00
 RHO, KG/CU M    1.1612 0 1.1612 0 1.1612 0 1.1612 0 1.1612 0 1.1612 0 1.1612 0 1.1612 0
 H, KJ/KG         -2.4750  -2.4750  -2.4750  -2.4750  -2.4750  -2.4750  -2.4750  -2.4750
 U, KJ/KG         -88.591  -88.591  -88.591  -88.591  -88.591  -88.591  -88.591  -88.591
 G, KJ/KG        -2063.60 -2063.60 -2063.60 -2063.60 -2063.60 -2063.60 -2063.60 -2063.60
 S, KJ/(KG)(K)     6.8704   6.8704   6.8704   6.8704   6.8704   6.8704   6.8704   6.8704

 M, (1/n)          28.965   28.965   28.965   28.965   28.965   28.965   28.965   28.965
 Cp, KJ/(KG)(K)    1.0048   1.0048   1.0048   1.0048   1.0048   1.0048   1.0048   1.0048
 GAMMAs            1.3999   1.3999   1.3999   1.3999   1.3999   1.3999   1.3999   1.3999
 SON VEL,M/SEC      347.2    347.2    347.2    347.2    347.2    347.2    347.2    347.2

 SHOCKED GAS (5)--REFLECTED--EQUILIBRIUM
 U5, M/SEC         313.24   331.24   349.95   369.07   388.45   408.10   428.61   450.99
 P, BAR            111.67   138.98   172.51   213.37   263.21   324.16   399.57   493.18
 T, K             1992.06  2260.91  2565.82  2905.90  3280.11  3686.24  4127.68  4610.77
 RHO, KG/CU M    1.9530e1 2.1414e1 2.3418e1 2.5553e1 2.7862e1 3.0381e1 3.3137e1 3.6095e1
 H, KJ/KG         1963.33  2323.69  2749.44  3248.75  3834.53  4522.31  5336.53  6298.77
 U, KJ/KG         1391.53  1674.70  2012.77  2413.75  2889.84  3455.32  4130.73  4932.41
 G, KJ/KG        -13223.5 -15154.3 -17379.4 -19901.4 -22720.2 -25826.9 -29256.6 -33073.3
 S, KJ/(KG)(K)     7.6237   7.7305   7.8450   7.9666   8.0957   8.2331   8.3808   8.5392

 M, (1/n)          28.967   28.966   28.959   28.936   28.869   28.725   28.462   28.057
 (dLV/dLP)t      -1.00004 -1.00009 -1.00024 -1.00070 -1.00188 -1.00437 -1.00866 -1.01472
 (dLV/dLT)p        1.0001   1.0008   1.0038   1.0123   1.0320   1.0679   1.1207   1.1829
 Cp, KJ/(KG)(K)    1.3156   1.3661   1.4301   1.5171   1.6397   1.8014   1.9869   2.1583
 GAMMAs            1.2790   1.2664   1.2532   1.2398   1.2273   1.2178   1.2136   1.2156
 SON VEL,M/SEC      855.2    906.6    960.8   1017.5   1076.8   1139.9   1209.7   1288.8

 P5/P2              6.111    6.419    6.719    7.009    7.293    7.576    7.869    8.187
 T5/T2              1.762    1.778    1.788    1.790    1.783    1.766    1.742    1.718
 M5/M2             1.0001   1.0000   0.9998   0.9990   0.9967   0.9917   0.9828   0.9695
 RHO5/RHO2         3.4690   3.6103   3.7574   3.9120   4.0772   4.2538   4.4389   4.6211
 U5+V2,M/SEC       773.38   864.64   964.95  1074.75  1195.33  1327.86  1473.93  1633.07
 V2, M/SEC        1086.62  1195.88  1314.90  1443.83  1583.78  1735.95  1902.54  2084.06

 MOLE FRACTIONS

 *e-             7.912-15 5.345-13 2.025-11 4.288-10 5.392 -9 4.383 -8 2.554 -7 1.156 -6
 *Ar             9.3655-3 9.3652-3 9.3632-3 9.3554-3 9.3341-3 9.2873-3 9.2024-3 9.0714-3
 *Ar+            7.947-28 7.286-25 3.239-22 7.200-20 8.367-18 5.259-16 1.966-14 4.806-13
 *C              1.445-26 3.486-23 3.256-20 1.196-17 1.821-15 1.209-13 3.939-12 7.296-11
 *C-             0.000  0 1.180-32 1.742-28 6.270-25 6.128-22 1.849-19 2.118-17 1.136-15
 *CN             2.949-21 1.030-18 1.769-16 1.513-14 6.658-13 1.551-11 2.078-10 1.798 -9
 CN-             4.865-26 7.347-23 4.175-20 8.954-18 7.778-16 2.982-14 5.797-13 6.643-12
 CNN             1.434-28 2.453-25 1.738-22 5.162-20 6.723-18 4.009-16 1.221-14 2.185-13
 *CO             8.2184-8 5.4295-7 2.8046-6 1.1278-5 3.4973-5 8.1821-5 1.4503-4 2.0363-4
 *CO+            7.495-29 1.327-25 1.030-22 3.593-20 5.759-18 4.247-16 1.558-14 3.212-13
 *CO2            3.1894-4 3.1847-4 3.1613-4 3.0740-4 2.8297-4 2.3453-4 1.6843-4 1.0537-4
 *CO2+           4.494-24 1.076-21 1.455-19 1.126-17 4.976-16 1.218-14 1.708-13 1.486-12
 OCCN            2.373-29 3.161-26 1.788-23 4.296-21 4.449-19 1.976-17 4.058-16 4.465-15
 C2O             9.379-30 2.005-26 1.707-23 5.801-21 8.034-19 4.542-17 1.139-15 1.481-14
 *N              6.703-11 1.886 -9 3.529 -8 4.439 -7 3.876 -6 2.442 -5 1.180 -4 4.624 -4
 *N+             3.212-33 3.502-29 1.363-25 1.970-22 1.133-19 2.767-17 3.306-15 2.216-13
 *N-             7.342-25 1.332-21 8.934-19 2.242-16 2.319-14 1.123-12 3.008-11 5.086-10
 NCO             3.019-16 1.352-14 3.849-13 6.946-12 8.004-11 5.873-10 2.847 -9 9.817 -9
 *NO             7.3645-3 1.4048-2 2.4585-2 3.9428-2 5.8105-2 7.8903-2 9.9298-2 1.1620-1
 *NO+            7.242-13 1.357-11 1.941-10 2.153 -9 1.859 -8 1.234 -7 6.417 -7 2.686 -6
 NO2             1.3578-4 1.9251-4 2.6202-4 3.4052-4 4.2066-4 4.9118-4 5.3872-4 5.4971-4
 NO2-            6.402-13 1.080-11 1.186-10 8.400-10 4.003 -9 1.369 -8 3.592 -8 7.543 -8
 NO3             2.0232-9 4.3984-9 8.8255-9 1.6182-8 2.6933-8 4.0351-8 5.4022-8 6.3769-8
 NO3-            3.457-14 3.044-13 1.913-12 8.436-12 2.692-11 6.529-11 1.262-10 1.985-10
 *N2             7.7713-1 7.7373-1 7.6825-1 7.6013-1 7.4894-1 7.3457-1 7.1719-1 6.9760-1
 *N2+            8.491-26 6.767-23 2.657-20 5.309-18 5.641-16 3.301-14 1.168-12 2.753-11
 *N2-            2.710-18 5.065-16 4.624-14 2.069-12 4.889-11 6.748-10 6.161 -9 4.097 -8
 NCN             1.922-25 1.262-22 3.851-20 5.503-18 3.819-16 1.329-14 2.542-13 3.026-12
 N2O             4.3628-6 9.1473-6 1.7788-5 3.1967-5 5.3142-5 8.1814-5 1.1730-4 1.5714-4
 N2O+            9.577-24 2.543-21 3.836-19 3.360-17 1.754-15 5.539-14 1.130-12 1.592-11
 N2O3            2.244-10 6.273-10 1.592 -9 3.630 -9 7.393 -9 1.336 -8 2.135 -8 2.987 -8
 N2O4            1.698-13 3.265-13 6.056-13 1.064-12 1.744-12 2.617-12 3.529-12 4.168-12
 N2O5            1.642-15 3.581-15 7.466-15 1.457-14 2.613-14 4.209-14 5.949-14 7.135-14
 N3              1.255-14 3.355-13 6.164-12 7.830-11 7.083-10 4.723 -9 2.461 -8 1.055 -7
 *O              2.6996-5 1.5023-4 6.7056-4 2.4070-3 7.0443-3 1.7068-2 3.5132-2 6.2753-2
 *O+             5.973-26 6.737-23 3.533-20 8.879-18 1.117-15 7.280-14 2.701-12 6.262-11
 *O-             6.781-16 8.390-14 5.256-12 1.669-10 2.872 -9 2.940 -8 2.000 -7 9.815 -7
 *O2             2.0565-1 2.0219-1 1.9654-1 1.8799-1 1.7578-1 1.5925-1 1.3808-1 1.1288-1
 *O2+            7.531-18 5.163-16 2.300-14 6.781-13 1.341-11 1.774-10 1.628 -9 1.080 -8
 O2-             4.084-14 1.851-12 4.799-11 7.076-10 6.265 -9 3.595 -8 1.457 -7 4.423 -7
 O3              5.6275-8 1.7920-7 5.0808-7 1.2866-6 2.9233-6 5.9401-6 1.0750-5 1.7077-5

  * THERMODYNAMIC PROPERTIES FITTED TO 20000.K



