
 *******************************************************************************

         NASA-GLENN CHEMICAL EQUILIBRIUM PROGRAM CEA2, MAY 21, 2004
                   BY  BONNIE MCBRIDE AND SANFORD GORDON
      REFS: NASA RP-1311, PART I, 1994 AND NASA RP-1311, PART II, 1996

 *******************************************************************************



 problem    phi,eq.ratio=0.5,0.6,0.7,0.8,0.9,1,1.1,1.2,1.3,1.4,1.5,1.6,1.7,1.8,1.
 9,2,
     hp   p,bar=1,  t,k=3800
 react
   fuel=C2H2,acetylene moles=1  t,k=300
   oxid=O2 moles=2.5  t,k=300
   oxid=N2 moles=9.4048  t,k=300
 output  short   trace=1e-16
 end




         THERMODYNAMIC EQUILIBRIUM COMBUSTION PROPERTIES AT ASSIGNED

                                   PRESSURES

 CASE =                

             REACTANT                       MOLES         ENERGY      TEMP
                                                         KJ/KG-MOL      K
 FUEL        C2H2,acetylene               1.0000000    228281.530    300.000
 OXIDANT     O2                           2.5000000        54.358    300.000
 OXIDANT     N2                           9.4048000        53.881    300.000

 O/F=   26.38197  %FUEL=  3.652038  R,EQ.RATIO= 0.500000  PHI,EQ.RATIO= 0.500000

 THERMODYNAMIC PROPERTIES

 P, BAR            1.0000
 T, K             1776.80
 RHO, KG/CU M    1.9850-1
 H, KJ/KG          321.99
 U, KJ/KG         -181.80
 G, KJ/KG        -15494.5
 S, KJ/(KG)(K)     8.9016

 M, (1/n)          29.324
 (dLV/dLP)t      -1.00004
 (dLV/dLT)p        1.0017
 Cp, KJ/(KG)(K)    1.3540
 GAMMAs            1.2660
 SON VEL,M/SEC      798.6

 MOLE FRACTIONS

 *CO             4.1578-5
 *CO2            8.2220-2
 COOH            2.234-11
 *H              6.9394-7
 HCO             1.796-14
 HNCO            4.995-14
 HNO             2.0185-9
 HNO2            4.1877-8
 HNO3            1.226-11
 HO2             3.9795-7
 *H2             5.5560-6
 HCOOH           7.281-13
 H2O             4.0941-2
 H2O2            1.0651-8
 *N              2.115-11
 NCO             2.310-15
 *NH             7.323-13
 NH2             1.418-13
 NH3             3.552-13
 NH2OH           1.624-16
 *NO             2.6402-3
 NO2             4.8727-6
 NO3             3.486-12
 *N2             7.7233-1
 N2O             1.5118-7
 N2O3            3.158-14
 *O              3.1015-5
 *OH             3.6704-4
 *O2             1.0142-1
 O3              6.292-10

  * THERMODYNAMIC PROPERTIES FITTED TO 20000.K









         THERMODYNAMIC EQUILIBRIUM COMBUSTION PROPERTIES AT ASSIGNED

                                   PRESSURES

 CASE =                

             REACTANT                       MOLES         ENERGY      TEMP
                                                         KJ/KG-MOL      K
 FUEL        C2H2,acetylene               1.0000000    228281.530    300.000
 OXIDANT     O2                           2.5000000        54.358    300.000
 OXIDANT     N2                           9.4048000        53.881    300.000

 O/F=   21.98498  %FUEL=  4.350668  R,EQ.RATIO= 0.600000  PHI,EQ.RATIO= 0.600000

 THERMODYNAMIC PROPERTIES

 P, BAR            1.0000
 T, K             2007.98
 RHO, KG/CU M    1.7610-1
 H, KJ/KG          383.23
 U, KJ/KG         -184.63
 G, KJ/KG        -17828.4
 S, KJ/(KG)(K)     9.0696

 M, (1/n)          29.400
 (dLV/dLP)t      -1.00027
 (dLV/dLT)p        1.0093
 Cp, KJ/(KG)(K)    1.4660
 GAMMAs            1.2441
 SON VEL,M/SEC      840.5

 MOLE FRACTIONS

 *CO             4.8955-4
 *CO2            9.7763-2
 COOH            3.271-10
 *H              1.2470-5
 HCN             6.577-15
 HCO             2.112-12
 HNC             3.368-16
 HNCO            1.736-12
 HNO             1.2010-8
 HNO2            5.5669-8
 HNO3            9.746-12
 HO2             1.0183-6
 *H2             5.2586-5
 HCHO,formaldehy 1.064-14
 HCOOH           9.395-12
 H2O             4.8410-2
 H2O2            2.6216-8
 *N              8.859-10
 NCO             1.907-13
 *NH             3.630-11
 NH2             5.613-12
 NH3             6.676-12
 NH2OH           2.811-15
 *NO             4.7498-3
 NO2             5.0122-6
 NO3             4.485-12
 *N2             7.6766-1
 N2H2            1.256-16
 N2O             2.6433-7
 N2O3            4.723-14
 N3              1.441-15
 *O              2.0022-4
 *OH             1.3134-3
 *O2             7.9342-2
 O3              1.3699-9

  * THERMODYNAMIC PROPERTIES FITTED TO 20000.K









         THERMODYNAMIC EQUILIBRIUM COMBUSTION PROPERTIES AT ASSIGNED

                                   PRESSURES

 CASE =                

             REACTANT                       MOLES         ENERGY      TEMP
                                                         KJ/KG-MOL      K
 FUEL        C2H2,acetylene               1.0000000    228281.530    300.000
 OXIDANT     O2                           2.5000000        54.358    300.000
 OXIDANT     N2                           9.4048000        53.881    300.000

 O/F=   18.84427  %FUEL=  5.039239  R,EQ.RATIO= 0.700000  PHI,EQ.RATIO= 0.700000

 THERMODYNAMIC PROPERTIES

 P, BAR            1.0000
 T, K             2208.45
 RHO, KG/CU M    1.6028-1
 H, KJ/KG          443.59
 U, KJ/KG         -180.31
 G, KJ/KG        -19907.7
 S, KJ/(KG)(K)     9.2152

 M, (1/n)          29.431
 (dLV/dLP)t      -1.00120
 (dLV/dLT)p        1.0363
 Cp, KJ/(KG)(K)    1.7186
 GAMMAs            1.2126
 SON VEL,M/SEC      869.8

 MOLE FRACTIONS

 *CN             5.118-15
 *CO             2.9311-3
 *CO2            1.1099-1
 COOH            2.2330-9
 *H              9.7967-5
 HCN             4.041-13
 HCO             6.577-11
 HNC             2.901-14
 HNCO            2.318-11
 HNO             4.0838-8
 HNO2            6.1885-8
 HNO3            7.090-12
 HO2             1.7817-6
 *H2             2.7417-4
 HCHO,formaldehy 3.286-13
 HCOOH           6.170-11
 H2O             5.5085-2
 H2O2            4.6596-8
 *N              1.2016-8
 NCO             4.467-12
 *NH             5.757-10
 NH2             7.940-11
 NH3             5.865-11
 NH2OH           2.198-14
 *NO             6.6635-3
 NO2             4.4553-6
 NO3             4.371-12
 *N2             7.6196-1
 N2H2            2.090-15
 N2O             3.6571-7
 N2O3            5.115-14
 N3              1.587-14
 N3H             1.026-15
 *O              6.8781-4
 *OH             3.1044-3
 *O2             5.8199-2
 O3              1.9390-9

  * THERMODYNAMIC PROPERTIES FITTED TO 20000.K









         THERMODYNAMIC EQUILIBRIUM COMBUSTION PROPERTIES AT ASSIGNED

                                   PRESSURES

 CASE =                

             REACTANT                       MOLES         ENERGY      TEMP
                                                         KJ/KG-MOL      K
 FUEL        C2H2,acetylene               1.0000000    228281.530    300.000
 OXIDANT     O2                           2.5000000        54.358    300.000
 OXIDANT     N2                           9.4048000        53.881    300.000

 O/F=   16.48873  %FUEL=  5.717967  R,EQ.RATIO= 0.800000  PHI,EQ.RATIO= 0.800000

 THERMODYNAMIC PROPERTIES

 P, BAR            1.0000
 T, K             2362.91
 RHO, KG/CU M    1.4951-1
 H, KJ/KG          503.09
 U, KJ/KG         -165.76
 G, KJ/KG        -21577.2
 S, KJ/(KG)(K)     9.3445

 M, (1/n)          29.374
 (dLV/dLP)t      -1.00337
 (dLV/dLT)p        1.0946
 Cp, KJ/(KG)(K)    2.1817
 GAMMAs            1.1794
 SON VEL,M/SEC      888.2

 MOLE FRACTIONS

 *C              1.175-16
 *CN             1.513-13
 *CO             1.0121-2
 *CO2            1.1889-1
 COOH            8.1388-9
 *H              3.9791-4
 HCN             7.344-12
 HCO             7.034-10
 HNC             6.574-13
 HNCO            1.424-10
 HNO             8.8138-8
 HNO2            5.8848-8
 HNO3            4.702-12
 HO2             2.2805-6
 *H2             8.9292-4
 HCHO,formaldehy 3.681-12
 HCOOH           2.314-10
 H2O             6.0783-2
 H2O2            6.3361-8
 *N              6.6215-8
 NCO             3.774-11
 *NH             3.6884-9
 NH2             4.964-10
 NH3             2.824-10
 NH2OH           9.058-14
 *NO             7.6191-3
 NO2             3.4764-6
 NO3             3.336-12
 *N2             7.5453-1
 N2H2            1.462-14
 N2O             4.1509-7
 N2O3            4.177-14
 N3              7.606-14
 N3H             5.309-15
 *O              1.4190-3
 *OH             5.2597-3
 *O2             4.0083-2
 O3              1.9048-9

  * THERMODYNAMIC PROPERTIES FITTED TO 20000.K









         THERMODYNAMIC EQUILIBRIUM COMBUSTION PROPERTIES AT ASSIGNED

                                   PRESSURES

 CASE =                

             REACTANT                       MOLES         ENERGY      TEMP
                                                         KJ/KG-MOL      K
 FUEL        C2H2,acetylene               1.0000000    228281.530    300.000
 OXIDANT     O2                           2.5000000        54.358    300.000
 OXIDANT     N2                           9.4048000        53.881    300.000

 O/F=   14.65665  %FUEL=  6.387061  R,EQ.RATIO= 0.900000  PHI,EQ.RATIO= 0.900000

 THERMODYNAMIC PROPERTIES

 P, BAR            1.0000
 T, K             2469.46
 RHO, KG/CU M    1.4230-1
 H, KJ/KG          561.74
 U, KJ/KG         -141.00
 G, KJ/KG        -22804.7
 S, KJ/(KG)(K)     9.4622

 M, (1/n)          29.218
 (dLV/dLP)t      -1.00622
 (dLV/dLT)p        1.1672
 Cp, KJ/(KG)(K)    2.7185
 GAMMAs            1.1579
 SON VEL,M/SEC      902.1

 MOLE FRACTIONS

 *C              2.088-15
 *CH             1.235-16
 CH2             1.034-16
 CH3             1.157-16
 *CN             1.431-12
 *CO             2.3157-2
 *CO2            1.2019-1
 COOH            1.8523-8
 *H              1.0001-3
 HCN             5.444-11
 HCO             3.4203-9
 HNC             5.582-12
 HNCO            4.910-10
 HNO             1.3602-7
 HNO2            4.9675-8
 HNO3            2.888-12
 HO2             2.3175-6
 *H2             2.0694-3
 HCHO,formaldehy 1.951-11
 HCOOH           5.678-10
 H2O             6.5606-2
 H2O2            7.0705-8
 *N              1.8929-7
 NCO             1.497-10
 *NH             1.2232-8
 NH2             1.7158-9
 NH3             8.791-10
 NH2OH           2.332-13
 *NO             7.4908-3
 NO2             2.4542-6
 NO3             2.112-12
 *N2             7.4521-1
 N2H2            5.418-14
 N2O             4.0575-7
 N2O3            2.750-14
 N3              1.984-13
 N3H             1.537-14
 *O              2.0154-3
 *OH             6.9915-3
 *O2             2.6267-2
 O3              1.4188-9

  * THERMODYNAMIC PROPERTIES FITTED TO 20000.K









         THERMODYNAMIC EQUILIBRIUM COMBUSTION PROPERTIES AT ASSIGNED

                                   PRESSURES

 CASE =                

             REACTANT                       MOLES         ENERGY      TEMP
                                                         KJ/KG-MOL      K
 FUEL        C2H2,acetylene               1.0000000    228281.530    300.000
 OXIDANT     O2                           2.5000000        54.358    300.000
 OXIDANT     N2                           9.4048000        53.881    300.000

 O/F=   13.19099  %FUEL=  7.046726  R,EQ.RATIO= 1.000000  PHI,EQ.RATIO= 1.000000

 THERMODYNAMIC PROPERTIES

 P, BAR            1.0000
 T, K             2538.80
 RHO, KG/CU M    1.3732-1
 H, KJ/KG          619.56
 U, KJ/KG         -108.66
 G, KJ/KG        -23679.9
 S, KJ/(KG)(K)     9.5712

 M, (1/n)          28.987
 (dLV/dLP)t      -1.00835
 (dLV/dLT)p        1.2181
 Cp, KJ/(KG)(K)    3.0822
 GAMMAs            1.1491
 SON VEL,M/SEC      914.8

 MOLE FRACTIONS

 *C              1.419-14
 *CH             9.757-16
 CH2             8.437-16
 CH3             9.332-16
 CH2OH           4.470-16
 CH4             1.115-16
 *CN             6.615-12
 *CO             4.0821-2
 *CO2            1.1608-1
 COOH            3.1079-8
 C2O             7.317-16
 *H              1.8577-3
 HCN             2.308-10
 HCO             1.0116-8
 HNC             2.569-11
 HNCO            1.1756-9
 HNO             1.6843-7
 HNO2            3.8301-8
 HNO3            1.650-12
 HO2             2.0057-6
 *H2             3.8879-3
 HCHO,formaldehy 6.462-11
 HCOOH           1.0604-9
 H2O             6.9669-2
 H2O2            6.8821-8
 *N              3.5646-7
 NCO             3.673-10
 *NH             2.6778-8
 NH2             4.0933-9
 NH3             2.0922-9
 NH2OH           4.446-13
 *NO             6.6344-3
 NO2             1.5977-6
 NO3             1.156-12
 *N2             7.3449-1
 NCN             1.032-16
 N2H2            1.346-13
 N2O             3.5714-7
 N2O3            1.537-14
 N3              3.512-13
 N3H             3.078-14
 *O              2.2387-3
 *OH             7.9256-3
 *O2             1.6398-2
 O3              8.618-10

  * THERMODYNAMIC PROPERTIES FITTED TO 20000.K









         THERMODYNAMIC EQUILIBRIUM COMBUSTION PROPERTIES AT ASSIGNED

                                   PRESSURES

 CASE =                

             REACTANT                       MOLES         ENERGY      TEMP
                                                         KJ/KG-MOL      K
 FUEL        C2H2,acetylene               1.0000000    228281.530    300.000
 OXIDANT     O2                           2.5000000        54.358    300.000
 OXIDANT     N2                           9.4048000        53.881    300.000

 O/F=   11.99181  %FUEL=  7.697159  R,EQ.RATIO= 1.100000  PHI,EQ.RATIO= 1.100000

 THERMODYNAMIC PROPERTIES

 P, BAR            1.0000
 T, K             2581.16
 RHO, KG/CU M    1.3376-1
 H, KJ/KG          676.57
 U, KJ/KG         -71.054
 G, KJ/KG        -24292.3
 S, KJ/(KG)(K)     9.6735

 M, (1/n)          28.705
 (dLV/dLP)t      -1.00887
 (dLV/dLT)p        1.2277
 Cp, KJ/(KG)(K)    3.1469
 GAMMAs            1.1492
 SON VEL,M/SEC      926.9

 MOLE FRACTIONS

 *C              5.347-14
 *CH             4.305-15
 CH2             4.067-15
 CH3             4.790-15
 CH2OH           1.546-15
 CH3O            2.691-16
 CH4             6.248-16
 *CN             1.983-11
 *CO             6.1488-2
 *CO2            1.0823-1
 COOH            4.2901-8
 OCCN            2.473-16
 C2O             3.270-15
 *H              2.8604-3
 HCN             7.051-10
 HCO             2.2107-8
 HNC             8.234-11
 HNCO            2.2626-9
 HNO             1.7937-7
 HNO2            2.7197-8
 HNO3            8.651-13
 HO2             1.5292-6
 *H2             6.4592-3
 HCHO,formaldehy 1.618-10
 HCOOH           1.6708-9
 H2O             7.2948-2
 H2O2            6.0251-8
 *N              5.1416-7
 NCO             6.689-10
 *NH             4.5210-8
 NH2             7.7908-9
 NH3             4.2633-9
 NH2OH           7.003-13
 *NO             5.4159-3
 NO2             9.5849-7
 NO3             5.514-13
 *N2             7.2282-1
 NCN             3.254-16
 N2H2            2.614-13
 N2O             2.8949-7
 N2O3            7.390-15
 N3              4.849-13
 N3H             4.899-14
 *O              2.0942-3
 *OH             8.0421-3
 *O2             9.6348-3
 O3              4.388-10

  * THERMODYNAMIC PROPERTIES FITTED TO 20000.K









         THERMODYNAMIC EQUILIBRIUM COMBUSTION PROPERTIES AT ASSIGNED

                                   PRESSURES

 CASE =                

             REACTANT                       MOLES         ENERGY      TEMP
                                                         KJ/KG-MOL      K
 FUEL        C2H2,acetylene               1.0000000    228281.530    300.000
 OXIDANT     O2                           2.5000000        54.358    300.000
 OXIDANT     N2                           9.4048000        53.881    300.000

 O/F=   10.99249  %FUEL=  8.338552  R,EQ.RATIO= 1.200000  PHI,EQ.RATIO= 1.200000

 THERMODYNAMIC PROPERTIES

 P, BAR            1.0000
 T, K             2602.78
 RHO, KG/CU M    1.3119-1
 H, KJ/KG          732.80
 U, KJ/KG         -29.480
 G, KJ/KG        -24696.7
 S, KJ/(KG)(K)     9.7701

 M, (1/n)          28.390
 (dLV/dLP)t      -1.00794
 (dLV/dLT)p        1.2017
 Cp, KJ/(KG)(K)    2.9572
 GAMMAs            1.1562
 SON VEL,M/SEC      938.8

 MOLE FRACTIONS

 *C              1.368-13
 *CH             1.304-14
 CH2             1.409-14
 CH3             1.873-14
 CH2OH           4.183-15
 CH3O            7.410-16
 CH4             2.794-15
 CH3OH           1.179-16
 *CN             4.504-11
 *CO             8.3896-2
 *CO2            9.7943-2
 COOH            5.1656-8
 CH2CO,ketene    2.364-16
 OCCN            7.362-16
 C2O             1.013-14
 *H              3.8812-3
 HCN             1.7699-9
 HCO             3.9731-8
 HCCO            2.218-16
 HNC             2.117-10
 HNCO            3.7998-9
 HNO             1.6982-7
 HNO2            1.7719-8
 HNO3            4.081-13
 HO2             1.0370-6
 *H2             9.9615-3
 HCHO,formaldehy 3.405-10
 HCOOH           2.3518-9
 H2O             7.5284-2
 H2O2            4.7900-8
 *N              6.1423-7
 NCO             9.985-10
 *NH             6.3927-8
 NH2             1.2798-8
 NH3             7.9295-9
 NH2OH           9.649-13
 *NO             4.1035-3
 NO2             5.2464-7
 NO3             2.267-13
 *N2             7.1051-1
 NCN             7.544-16
 N2H2            4.320-13
 N2O             2.1758-7
 N2O3            3.038-15
 N3              5.617-13
 N3H             6.665-14
 *O              1.7060-3
 *OH             7.4658-3
 *O2             5.2433-3
 O3              1.873-10

  * THERMODYNAMIC PROPERTIES FITTED TO 20000.K









         THERMODYNAMIC EQUILIBRIUM COMBUSTION PROPERTIES AT ASSIGNED

                                   PRESSURES

 CASE =                

             REACTANT                       MOLES         ENERGY      TEMP
                                                         KJ/KG-MOL      K
 FUEL        C2H2,acetylene               1.0000000    228281.530    300.000
 OXIDANT     O2                           2.5000000        54.358    300.000
 OXIDANT     N2                           9.4048000        53.881    300.000

 O/F=   10.14691  %FUEL=  8.971093  R,EQ.RATIO= 1.300000  PHI,EQ.RATIO= 1.300000

 THERMODYNAMIC PROPERTIES

 P, BAR            1.0000
 T, K             2607.45
 RHO, KG/CU M    1.2938-1
 H, KJ/KG          788.24
 U, KJ/KG          15.345
 G, KJ/KG        -24925.6
 S, KJ/(KG)(K)     9.8617

 M, (1/n)          28.050
 (dLV/dLP)t      -1.00634
 (dLV/dLT)p        1.1595
 Cp, KJ/(KG)(K)    2.6501
 GAMMAs            1.1683
 SON VEL,M/SEC      950.2

 MOLE FRACTIONS

 *C              2.649-13
 *CH             3.028-14
 CH2             3.896-14
 CH3             6.152-14
 CH2OH           9.565-15
 CH3O            1.701-15
 CH4             1.092-14
 CH3OH           3.216-16
 *CN             8.445-11
 *CO             1.0705-1
 *CO2            8.6244-2
 COOH            5.5932-8
 CH2CO,ketene    8.127-16
 OCCN            1.746-15
 C2O             2.441-14
 *H              4.7925-3
 HCN             3.9215-9
 HCO             6.2203-8
 HCCO            6.414-16
 HNC             4.714-10
 HNCO            5.8211-9
 HNO             1.4523-7
 HNO2            1.0541-8
 HNO3            1.707-13
 HO2             6.2669-7
 *H2             1.4625-2
 HCHO,formaldehy 6.378-10
 HCOOH           3.0459-9
 H2O             7.6421-2
 H2O2            3.4647-8
 *N              6.3340-7
 NCO             1.2894-9
 *NH             7.9062-8
 NH2             1.8907-8
 NH3             1.3917-8
 NH2OH           1.197-12
 *NO             2.8926-3
 NO2             2.5992-7
 NO3             7.962-14
 *N2             6.9773-1
 NCN             1.410-15
 N2H2            6.343-13
 N2O             1.5201-7
 N2O3            1.059-15
 N3              5.671-13
 N3H             8.057-14
 *O              1.2302-3
 *OH             6.4045-3
 *O2             2.6133-3
 O3              6.678-11

  * THERMODYNAMIC PROPERTIES FITTED TO 20000.K









         THERMODYNAMIC EQUILIBRIUM COMBUSTION PROPERTIES AT ASSIGNED

                                   PRESSURES

 CASE =                

             REACTANT                       MOLES         ENERGY      TEMP
                                                         KJ/KG-MOL      K
 FUEL        C2H2,acetylene               1.0000000    228281.530    300.000
 OXIDANT     O2                           2.5000000        54.358    300.000
 OXIDANT     N2                           9.4048000        53.881    300.000

 O/F=    9.42213  %FUEL=  9.594964  R,EQ.RATIO= 1.400000  PHI,EQ.RATIO= 1.400000

 THERMODYNAMIC PROPERTIES

 P, BAR            1.0000
 T, K             2598.34
 RHO, KG/CU M    1.2819-1
 H, KJ/KG          842.93
 U, KJ/KG          62.839
 G, KJ/KG        -25007.1
 S, KJ/(KG)(K)     9.9487

 M, (1/n)          27.694
 (dLV/dLP)t      -1.00479
 (dLV/dLT)p        1.1191
 Cp, KJ/(KG)(K)    2.3533
 GAMMAs            1.1834
 SON VEL,M/SEC      960.8

 MOLE FRACTIONS

 *C              4.156-13
 *CH             5.762-14
 CH2             9.120-14
 CH3             1.781-13
 CH2OH           1.924-14
 CH3O            3.396-15
 CH4             3.891-14
 CH3OH           7.923-16
 *CN             1.374-10
 *CO             1.3004-1
 *CO2            7.4072-2
 COOH            5.5488-8
 C2H2,acetylene  1.551-16
 CH2CO,ketene    2.432-15
 OCCN            3.510-15
 C2O             4.890-14
 *H              5.4906-3
 HCN             7.9644-9
 HCO             8.7649-8
 HCCO            1.556-15
 HNC             9.479-10
 HNCO            8.3284-9
 HNO             1.1368-7
 HNO2            5.7443-9
 HNO3            6.341-14
 HO2             3.4029-7
 *H2             2.0669-2
 HCHO,formaldehy 1.0949-9
 HCOOH           3.6841-9
 H2O             7.6080-2
 H2O2            2.2909-8
 *N              5.8045-7
 NCO             1.4891-9
 *NH             8.7878-8
 NH2             2.5688-8
 NH3             2.3363-8
 NH2OH           1.356-12
 *NO             1.9094-3
 NO2             1.1706-7
 NO3             2.407-14
 *N2             6.8462-1
 NCN             2.246-15
 N2H2            8.486-13
 N2O             9.9373-8
 N2O3            3.160-16
 N3              5.129-13
 N3H             8.866-14
 *O              7.9826-4
 *OH             5.1209-3
 *O2             1.1953-3
 O3              2.013-11

  * THERMODYNAMIC PROPERTIES FITTED TO 20000.K









         THERMODYNAMIC EQUILIBRIUM COMBUSTION PROPERTIES AT ASSIGNED

                                   PRESSURES

 CASE =                

             REACTANT                       MOLES         ENERGY      TEMP
                                                         KJ/KG-MOL      K
 FUEL        C2H2,acetylene               1.0000000    228281.530    300.000
 OXIDANT     O2                           2.5000000        54.358    300.000
 OXIDANT     N2                           9.4048000        53.881    300.000

 O/F=    8.79399  %FUEL= 10.210342  R,EQ.RATIO= 1.500000  PHI,EQ.RATIO= 1.500000

 THERMODYNAMIC PROPERTIES

 P, BAR            1.0000
 T, K             2579.01
 RHO, KG/CU M    1.2746-1
 H, KJ/KG          896.87
 U, KJ/KG          112.30
 G, KJ/KG        -24974.1
 S, KJ/(KG)(K)    10.0314

 M, (1/n)          27.331
 (dLV/dLP)t      -1.00362
 (dLV/dLT)p        1.0887
 Cp, KJ/(KG)(K)    2.1279
 GAMMAs            1.1988
 SON VEL,M/SEC      969.8

 MOLE FRACTIONS

 *C              5.561-13
 *CH             9.403-14
 CH2             1.872-13
 CH3             4.653-13
 CH2OH           3.479-14
 CH3O            6.044-15
 CH4             1.279-13
 CH3OH           1.784-15
 *CN             2.010-10
 *CO             1.5208-1
 *CO2            6.2276-2
 COOH            5.1237-8
 C2H2,acetylene  5.768-16
 CH2CO,ketene    6.516-15
 OCCN            6.225-15
 C2N2            1.124-16
 C2O             8.513-14
 *H              5.9254-3
 HCN             1.5112-8
 HCO             1.1360-7
 HCCO            3.298-15
 HNC             1.7606-9
 HNCO            1.1272-8
 HNO             8.2819-8
 HNO2            2.9106-9
 HNO3            2.135-14
 HO2             1.6928-7
 *H2             2.8215-2
 HCHO,formaldehy 1.7476-9
 HCOOH           4.1959-9
 H2O             7.4067-2
 H2O2            1.4020-8
 *N              4.8635-7
 NCO             1.5788-9
 *NH             8.9811-8
 NH2             3.2563-8
 NH3             3.7590-8
 NH2OH           1.421-12
 *NO             1.1972-3
 NO2             4.8871-8
 NO3             6.460-15
 *N2             6.7139-1
 NCN             3.169-15
 N2H2            1.052-12
 N2O             6.1670-8
 N3              4.266-13
 N3H             9.058-14
 *O              4.7727-4
 *OH             3.8637-3
 *O2             5.1047-4
 O3              5.318-12

  * THERMODYNAMIC PROPERTIES FITTED TO 20000.K









         THERMODYNAMIC EQUILIBRIUM COMBUSTION PROPERTIES AT ASSIGNED

                                   PRESSURES

 CASE =                

             REACTANT                       MOLES         ENERGY      TEMP
                                                         KJ/KG-MOL      K
 FUEL        C2H2,acetylene               1.0000000    228281.530    300.000
 OXIDANT     O2                           2.5000000        54.358    300.000
 OXIDANT     N2                           9.4048000        53.881    300.000

 O/F=    8.24437  %FUEL= 10.817398  R,EQ.RATIO= 1.600000  PHI,EQ.RATIO= 1.600000

 THERMODYNAMIC PROPERTIES

 P, BAR            1.0000
 T, K             2553.03
 RHO, KG/CU M    1.2705-1
 H, KJ/KG          950.08
 U, KJ/KG          162.97
 G, KJ/KG        -24861.3
 S, KJ/(KG)(K)    10.1101

 M, (1/n)          26.968
 (dLV/dLP)t      -1.00283
 (dLV/dLT)p        1.0683
 Cp, KJ/(KG)(K)    1.9767
 GAMMAs            1.2124
 SON VEL,M/SEC      976.9

 MOLE FRACTIONS

 *C              6.637-13
 *CH             1.367-13
 CH2             3.458-13
 CH3             1.109-12
 CH2OH           5.733-14
 CH3O            9.748-15
 CH4             3.875-13
 CH3OH           3.687-15
 *CN             2.718-10
 *CO             1.7261-1
 *CO2            5.1471-2
 COOH            4.4695-8
 C2H2,acetylene  1.924-15
 CH2CO,ketene    1.587-14
 OCCN            1.004-14
 C2N2            2.666-16
 C2O             1.334-13
 C3O2            1.441-16
 *H              6.1058-3
 HCN             2.7088-8
 HCO             1.3778-7
 HCCO            6.276-15
 HNC             3.0648-9
 HNCO            1.4557-8
 HNO             5.7221-8
 HNO2            1.3995-9
 HNO3            6.713-15
 HO2             7.9094-8
 *H2             3.7221-2
 HCHO,formaldehy 2.6161-9
 HCOOH           4.5275-9
 H2O             7.0373-2
 H2O2            8.0739-9
 *N              3.8321-7
 NCO             1.5726-9
 *NH             8.6202-8
 NH2             3.8956-8
 NH3             5.7845-8
 NH2OH           1.390-12
 *NO             7.2551-4
 NO2             1.9421-8
 NO3             1.604-15
 *N2             6.5822-1
 NCN             4.095-15
 N2H2            1.224-12
 N2O             3.6983-8
 N3              3.352-13
 N3H             8.751-14
 *O              2.7012-4
 *OH             2.7905-3
 *O2             2.0851-4
 O3              1.288-12

  * THERMODYNAMIC PROPERTIES FITTED TO 20000.K









         THERMODYNAMIC EQUILIBRIUM COMBUSTION PROPERTIES AT ASSIGNED

                                   PRESSURES

 CASE =                

             REACTANT                       MOLES         ENERGY      TEMP
                                                         KJ/KG-MOL      K
 FUEL        C2H2,acetylene               1.0000000    228281.530    300.000
 OXIDANT     O2                           2.5000000        54.358    300.000
 OXIDANT     N2                           9.4048000        53.881    300.000

 O/F=    7.75940  %FUEL= 11.416302  R,EQ.RATIO= 1.700000  PHI,EQ.RATIO= 1.700000

 THERMODYNAMIC PROPERTIES

 P, BAR            1.0000
 T, K             2523.35
 RHO, KG/CU M    1.2684-1
 H, KJ/KG         1002.58
 U, KJ/KG          214.18
 G, KJ/KG        -24698.1
 S, KJ/(KG)(K)    10.1851

 M, (1/n)          26.611
 (dLV/dLP)t      -1.00231
 (dLV/dLT)p        1.0550
 Cp, KJ/(KG)(K)    1.8797
 GAMMAs            1.2235
 SON VEL,M/SEC      982.2

 MOLE FRACTIONS

 *C              7.332-13
 *CH             1.827-13
 CH2             5.873-13
 CH3             2.438-12
 CH2OH           8.720-14
 CH3O            1.446-14
 CH4             1.084-12
 CH3OH           7.018-15
 *CN             3.480-10
 *CO             1.9141-1
 *CO2            4.1953-2
 COOH            3.7285-8
 C2H2,acetylene  5.856-15
 CH2CO,ketene    3.561-14
 OCCN            1.511-14
 C2N2            5.920-16
 C2O             1.939-13
 C3O2            2.679-16
 *H              6.0769-3
 HCN             4.6314-8
 HCO             1.5865-7
 HCCO            1.099-14
 HNC             5.0639-9
 HNCO            1.8066-8
 HNO             3.8080-8
 HNO2            6.492-10
 HNO3            2.018-15
 HO2             3.5422-8
 *H2             4.7499-2
 HCHO,formaldehy 3.7013-9
 HCOOH           4.6528-9
 H2O             6.5166-2
 H2O2            4.4355-9
 *N              2.9060-7
 NCO             1.4998-9
 *NH             7.9093-8
 NH2             4.4425-8
 NH3             8.5058-8
 NH2OH           1.282-12
 *NO             4.3102-4
 NO2             7.5044-9
 NO3             3.812-16
 *N2             6.4528-1
 NCN             4.981-15
 N2H2            1.355-12
 N2O             2.1742-8
 N3              2.541-13
 N3H             8.118-14
 *O              1.4793-4
 *OH             1.9521-3
 *O2             8.3060-5
 O3              2.968-13

  * THERMODYNAMIC PROPERTIES FITTED TO 20000.K









         THERMODYNAMIC EQUILIBRIUM COMBUSTION PROPERTIES AT ASSIGNED

                                   PRESSURES

 CASE =                

             REACTANT                       MOLES         ENERGY      TEMP
                                                         KJ/KG-MOL      K
 FUEL        C2H2,acetylene               1.0000000    228281.530    300.000
 OXIDANT     O2                           2.5000000        54.358    300.000
 OXIDANT     N2                           9.4048000        53.881    300.000

 O/F=    7.32833  %FUEL= 12.007215  R,EQ.RATIO= 1.800000  PHI,EQ.RATIO= 1.800000

 THERMODYNAMIC PROPERTIES

 P, BAR            1.0000
 T, K             2491.94
 RHO, KG/CU M    1.2676-1
 H, KJ/KG         1054.38
 U, KJ/KG          265.47
 G, KJ/KG        -24504.5
 S, KJ/(KG)(K)    10.2566

 M, (1/n)          26.263
 (dLV/dLP)t      -1.00196
 (dLV/dLT)p        1.0460
 Cp, KJ/(KG)(K)    1.8169
 GAMMAs            1.2326
 SON VEL,M/SEC      986.1

 MOLE FRACTIONS

 *C              7.714-13
 *CH             2.303-13
 CH2             9.358-13
 CH3             5.010-12
 CH2OH           1.239-13
 CH3O            2.000-14
 CH4             2.819-12
 CH3OH           1.240-14
 *CN             4.300-10
 *CO             2.0848-1
 *CO2            3.3748-2
 COOH            2.9977-8
 C2H             1.186-16
 C2H2,acetylene  1.659-14
 CH2CO,ketene    7.477-14
 OCCN            2.166-14
 C2N2            1.257-15
 C2O             2.673-13
 C3O2            4.700-16
 *H              5.8927-3
 HCN             7.6337-8
 HCO             1.7544-7
 HCCO            1.809-14
 HNC             8.0427-9
 HNCO            2.1692-8
 HNO             2.4633-8
 HNO2            2.927-10
 HNO3            5.865-16
 HO2             1.5361-8
 *H2             5.8778-2
 HCHO,formaldehy 4.9883-9
 HCOOH           4.5718-9
 H2O             5.8723-2
 H2O2            2.3397-9
 *N              2.1548-7
 NCO             1.3886-9
 *NH             7.0283-8
 NH2             4.8707-8
 NH3             1.1975-7
 NH2OH           1.123-12
 *NO             2.5290-4
 NO2             2.8477-9
 *N2             6.3268-1
 NCN             5.828-15
 N2H2            1.440-12
 N2O             1.2626-8
 N3              1.888-13
 N3H             7.314-14
 *O              7.9390-5
 *OH             1.3316-3
 *O2             3.2546-5
 O3              6.627-14

  * THERMODYNAMIC PROPERTIES FITTED TO 20000.K









         THERMODYNAMIC EQUILIBRIUM COMBUSTION PROPERTIES AT ASSIGNED

                                   PRESSURES

 CASE =                

             REACTANT                       MOLES         ENERGY      TEMP
                                                         KJ/KG-MOL      K
 FUEL        C2H2,acetylene               1.0000000    228281.530    300.000
 OXIDANT     O2                           2.5000000        54.358    300.000
 OXIDANT     N2                           9.4048000        53.881    300.000

 O/F=    6.94262  %FUEL= 12.590296  R,EQ.RATIO= 1.900000  PHI,EQ.RATIO= 1.900000

 THERMODYNAMIC PROPERTIES

 P, BAR            1.0000
 T, K             2459.94
 RHO, KG/CU M    1.2676-1
 H, KJ/KG         1105.49
 U, KJ/KG          316.57
 G, KJ/KG        -24293.0
 S, KJ/(KG)(K)    10.3248

 M, (1/n)          25.926
 (dLV/dLP)t      -1.00170
 (dLV/dLT)p        1.0396
 Cp, KJ/(KG)(K)    1.7746
 GAMMAs            1.2401
 SON VEL,M/SEC      989.1

 MOLE FRACTIONS

 *C              7.902-13
 *CH             2.798-13
 CH2             1.426-12
 CH3             9.771-12
 CH2OH           1.662-13
 CH3O            2.609-14
 CH4             6.906-12
 CH3OH           2.050-14
 *CN             5.215-10
 *CO             2.2400-1
 *CO2            2.6728-2
 COOH            2.3294-8
 C2H             2.358-16
 C2H2,acetylene  4.480-14
 CH2CO,ketene    1.493-13
 O(CH)2O         1.078-16
 OCCN            3.015-14
 C2N2            2.608-15
 C2O             3.570-13
 C3O2            7.933-16
 *H              5.6019-3
 HCN             1.2279-7
 HCO             1.8801-7
 HCCO            2.853-14
 HNC             1.2444-8
 HNCO            2.5349-8
 HNO             1.5530-8
 HNO2            1.280-10
 HNO3            1.640-16
 HO2             6.4462-9
 *H2             7.0770-2
 HCHO,formaldehy 6.4530-9
 HCOOH           4.3012-9
 H2O             5.1349-2
 H2O2            1.1828-9
 *N              1.5775-7
 NCO             1.2598-9
 *NH             6.1021-8
 NH2             5.1707-8
 NH3             1.6206-7
 NH2OH           9.365-13
 *NO             1.4665-4
 NO2             1.0595-9
 *N2             6.2046-1
 NCN             6.679-15
 N2H2            1.480-12
 N2O             7.2473-9
 N3              1.386-13
 N3H             6.450-14
 *O              4.1917-5
 *OH             8.8664-4
 *O2             1.2514-5
 O3              1.433-14

  * THERMODYNAMIC PROPERTIES FITTED TO 20000.K









         THERMODYNAMIC EQUILIBRIUM COMBUSTION PROPERTIES AT ASSIGNED

                                   PRESSURES

 CASE =                

             REACTANT                       MOLES         ENERGY      TEMP
                                                         KJ/KG-MOL      K
 FUEL        C2H2,acetylene               1.0000000    228281.530    300.000
 OXIDANT     O2                           2.5000000        54.358    300.000
 OXIDANT     N2                           9.4048000        53.881    300.000

 O/F=    6.59549  %FUEL= 13.165701  R,EQ.RATIO= 2.000000  PHI,EQ.RATIO= 2.000000

 THERMODYNAMIC PROPERTIES

 P, BAR            1.0000
 T, K             2427.98
 RHO, KG/CU M    1.2681-1
 H, KJ/KG         1155.93
 U, KJ/KG          367.34
 G, KJ/KG        -24070.5
 S, KJ/(KG)(K)    10.3899

 M, (1/n)          25.599
 (dLV/dLP)t      -1.00149
 (dLV/dLT)p        1.0347
 Cp, KJ/(KG)(K)    1.7445
 GAMMAs            1.2466
 SON VEL,M/SEC      991.5

 MOLE FRACTIONS

 *C              8.032-13
 *CH             3.341-13
 CH2             2.116-12
 CH3             1.842-11
 CH2OH           2.127-13
 CH3O            3.245-14
 CH4             1.622-11
 CH3OH           3.206-14
 *CN             6.304-10
 *CO             2.3818-1
 *CO2            2.0709-2
 COOH            1.7450-8
 C2H             4.627-16
 C2H2,acetylene  1.186-13
 CH2CO,ketene    2.890-13
 O(CH)2O         1.406-16
 OCCN            4.148-14
 C2N2            5.427-15
 C2O             4.706-13
 C3O2            1.314-15
 *H              5.2439-3
 HCN             1.9553-7
 HCO             1.9657-7
 HCCO            4.398-14
 HNC             1.9044-8
 HNCO            2.8978-8
 HNO             9.5092-9
 HNO2            5.367-11
 HO2             2.5888-9
 *H2             8.3209-2
 HCHO,formaldehy 8.0683-9
 HCOOH           3.8650-9
 H2O             4.3325-2
 H2O2            5.668-10
 *N              1.1462-7
 NCO             1.1269-9
 *NH             5.2066-8
 NH2             5.3458-8
 NH3             2.1189-7
 NH2OH           7.424-13
 *NO             8.3573-5
 NO2             3.816-10
 *N2             6.0865-1
 NCN             7.623-15
 N2H2            1.482-12
 N2O             4.0897-9
 N3              1.011-13
 N3H             5.597-14
 *O              2.1693-5
 *OH             5.7383-4
 *O2             4.6600-6
 O3              2.946-15

  * THERMODYNAMIC PROPERTIES FITTED TO 20000.K



