
 *******************************************************************************

         NASA-GLENN CHEMICAL EQUILIBRIUM PROGRAM CEA2, MAY 21, 2004
                   BY  BONNIE MCBRIDE AND SANFORD GORDON
      REFS: NASA RP-1311, PART I, 1994 AND NASA RP-1311, PART II, 1996

 *******************************************************************************



 problem    phi,eq.ratio=3.7,3.8,3.9,4,
       hp   p,bar=1,  t,k=3800
 react
   fuel=C2H4 moles=1 t,k=300
   oxid=O2 moles=3 t,k=300
 output
      trace=1e-16 siunits short
 end




         THERMODYNAMIC EQUILIBRIUM COMBUSTION PROPERTIES AT ASSIGNED

                                   PRESSURES

 CASE =                

             REACTANT                       MOLES         ENERGY      TEMP
                                                         KJ/KG-MOL      K
 FUEL        C2H4                         1.0000000     52579.505    300.000
 OXIDANT     O2                           3.0000000        54.358    300.000

 O/F=    0.92485  %FUEL= 51.952093  R,EQ.RATIO= 3.700000  PHI,EQ.RATIO= 3.700000

 THERMODYNAMIC PROPERTIES

 P, BAR            1.0000
 T, K             2127.68
 RHO, KG/CU M    8.4176-2
 H, KJ/KG          974.54
 U, KJ/KG         -213.44
 G, KJ/KG        -32223.3
 S, KJ/(KG)(K)    15.6028

 M, (1/n)          14.891
 MW, MOL WT        13.508
 (dLV/dLP)t      -1.00081
 (dLV/dLT)p        1.0182
 Cp, KJ/(KG)(K)    2.8932
 GAMMAs            1.2488
 SON VEL,M/SEC     1218.0

 MOLE FRACTIONS

 *C              3.660-10
 *CH             9.311-10
 CH2             6.6681-8
 CH3             8.3467-6
 CH2OH           3.302-12
 CH3O            3.725-13
 CH4             8.6756-5
 CH3OH           4.710-12
 *CO             4.0565-1
 *CO2            2.6277-6
 COOH            1.637-12
 *C2             4.079-11
 C2H             1.2015-7
 C2H2,acetylene  8.5134-4
 C2H2,vinylidene 1.4954-7
 CH2CO,ketene    1.5888-7
 O(CH)2O         2.458-15
 C2H3,vinyl      5.8012-8
 CH3CO,acetyl    2.511-11
 C2H4            1.6371-6
 C2H4O,ethylen-o 9.162-16
 CH3CHO,ethanal  7.867-12
 C2H5            1.869-10
 C2H6            2.779-10
 C2O             3.5027-9
 *C3             4.816-10
 C3H3,1-propynl  3.989-11
 C3H3,2-propynl  1.4207-7
 C3H4,allene     1.0770-8
 C3H4,propyne    2.5893-8
 C3H4,cyclo-     6.350-11
 C3H5,allyl      6.601-11
 C3H6,propylene  4.521-11
 C3H6,cyclo-     1.841-13
 C3H7,n-propyl   1.507-15
 C3H7,i-propyl   1.171-15
 C3H8            2.237-15
 C3O2            1.134-10
 *C4             5.167-14
 C4H2,butadiyne  5.8617-7
 C4H4,1,3-cyclo- 1.882-13
 C4H6,butadiene  2.106-12
 C4H6,1butyne    2.273-13
 C4H6,2butyne    1.616-13
 C4H6,cyclo-     5.290-15
 C4H8,1-butene   3.358-16
 C4H8,cis2-buten 1.274-16
 C4H8,tr2-butene 1.434-16
 C4H8,isobutene  1.533-16
 *C5             2.131-13
 C5H6,1,3cyclo-  5.307-14
 C6H2            4.247-10
 C6H5,phenyl     9.184-15
 C6H6            1.980-13
 *H              2.4849-3
 HCO             2.9780-7
 HCCO            1.9060-9
 *H2             4.9803-1
 HCHO,formaldehy 9.1372-8
 HCOOH           2.809-12
 H2O             1.6240-5
 *O              3.549-11
 *OH             1.1316-8
 *O2             4.916-16
 C(gr)           9.2871-2

  * THERMODYNAMIC PROPERTIES FITTED TO 20000.K









         THERMODYNAMIC EQUILIBRIUM COMBUSTION PROPERTIES AT ASSIGNED

                                   PRESSURES

 CASE =                

             REACTANT                       MOLES         ENERGY      TEMP
                                                         KJ/KG-MOL      K
 FUEL        C2H4                         1.0000000     52579.505    300.000
 OXIDANT     O2                           3.0000000        54.358    300.000

 O/F=    0.90051  %FUEL= 52.617397  R,EQ.RATIO= 3.800000  PHI,EQ.RATIO= 3.800000

 THERMODYNAMIC PROPERTIES

 P, BAR            1.0000
 T, K             2103.48
 RHO, KG/CU M    8.5087-2
 H, KJ/KG          987.00
 U, KJ/KG         -188.27
 G, KJ/KG        -31804.1
 S, KJ/(KG)(K)    15.5889

 M, (1/n)          14.881
 MW, MOL WT        13.337
 (dLV/dLP)t      -1.00073
 (dLV/dLT)p        1.0161
 Cp, KJ/(KG)(K)    2.8765
 GAMMAs            1.2497
 SON VEL,M/SEC     1211.9

 MOLE FRACTIONS

 *C              2.270-10
 *CH             6.300-10
 CH2             5.2104-8
 CH3             7.7053-6
 CH2OH           3.094-12
 CH3O            3.396-13
 CH4             9.2994-5
 CH3OH           5.017-12
 *CO             3.9496-1
 *CO2            2.7931-6
 COOH            1.560-12
 *C2             2.360-11
 C2H             8.2972-8
 C2H2,acetylene  7.3806-4
 C2H2,vinylidene 1.1546-7
 CH2CO,ketene    1.5067-7
 O(CH)2O         2.351-15
 C2H3,vinyl      4.8611-8
 CH3CO,acetyl    2.334-11
 C2H4            1.6215-6
 C2H4O,ethylen-o 8.830-16
 CH3CHO,ethanal  8.181-12
 C2H5            1.787-10
 C2H6            3.053-10
 C2O             2.6194-9
 *C3             2.797-10
 C3H3,1-propynl  3.039-11
 C3H3,2-propynl  1.1620-7
 C3H4,allene     9.7295-9
 C3H4,propyne    2.3502-8
 C3H4,cyclo-     5.427-11
 C3H5,allyl      6.096-11
 C3H6,propylene  4.639-11
 C3H6,cyclo-     1.844-13
 C3H7,n-propyl   1.478-15
 C3H7,i-propyl   1.158-15
 C3H8            2.523-15
 C3O2            9.909-11
 *C4             2.626-14
 C4H2,butadiyne  4.3963-7
 C4H4,1,3-cyclo- 1.500-13
 C4H6,butadiene  2.017-12
 C4H6,1butyne    2.118-13
 C4H6,2butyne    1.530-13
 C4H6,cyclo-     4.956-15
 C4H8,1-butene   3.540-16
 C4H8,cis2-buten 1.353-16
 C4H8,tr2-butene 1.522-16
 C4H8,isobutene  1.634-16
 *C5             1.069-13
 C5H6,1,3cyclo-  5.040-14
 C6H2            2.756-10
 C6H5,phenyl     7.609-15
 C6H6            1.949-13
 *H              2.1311-3
 HCO             2.6441-7
 HCCO            1.5478-9
 *H2             4.9828-1
 HCHO,formaldehy 9.0206-8
 HCOOH           2.987-12
 H2O             1.7444-5
 *O              2.707-11
 *OH             1.0027-8
 *O2             4.036-16
 C(gr)           1.0377-1

  * THERMODYNAMIC PROPERTIES FITTED TO 20000.K









         THERMODYNAMIC EQUILIBRIUM COMBUSTION PROPERTIES AT ASSIGNED

                                   PRESSURES

 CASE =                

             REACTANT                       MOLES         ENERGY      TEMP
                                                         KJ/KG-MOL      K
 FUEL        C2H4                         1.0000000     52579.505    300.000
 OXIDANT     O2                           3.0000000        54.358    300.000

 O/F=    0.87742  %FUEL= 53.264528  R,EQ.RATIO= 3.900000  PHI,EQ.RATIO= 3.900000

 THERMODYNAMIC PROPERTIES

 P, BAR            1.0000
 T, K             2080.04
 RHO, KG/CU M    8.5987-2
 H, KJ/KG          999.12
 U, KJ/KG         -163.84
 G, KJ/KG        -31397.5
 S, KJ/(KG)(K)    15.5750

 M, (1/n)          14.871
 MW, MOL WT        13.175
 (dLV/dLP)t      -1.00066
 (dLV/dLT)p        1.0143
 Cp, KJ/(KG)(K)    2.8633
 GAMMAs            1.2504
 SON VEL,M/SEC     1205.9

 MOLE FRACTIONS

 *C              1.414-10
 *CH             4.278-10
 CH2             4.0797-8
 CH3             7.1157-6
 CH2OH           2.900-12
 CH3O            3.098-13
 CH4             9.9578-5
 CH3OH           5.338-12
 *CO             3.8481-1
 *CO2            2.9695-6
 COOH            1.487-12
 *C2             1.372-11
 C2H             5.7488-8
 C2H2,acetylene  6.4058-4
 C2H2,vinylidene 8.9332-8
 CH2CO,ketene    1.4296-7
 O(CH)2O         2.249-15
 C2H3,vinyl      4.0782-8
 CH3CO,acetyl    2.170-11
 C2H4            1.6052-6
 C2H4O,ethylen-o 8.511-16
 CH3CHO,ethanal  8.501-12
 C2H5            1.709-10
 C2H6            3.347-10
 C2H5OH          1.081-16
 C2O             1.9649-9
 *C3             1.632-10
 C3H3,1-propynl  2.320-11
 C3H3,2-propynl  9.5173-8
 C3H4,allene     8.7925-9
 C3H4,propyne    2.1338-8
 C3H4,cyclo-     4.642-11
 C3H5,allyl      5.631-11
 C3H6,propylene  4.755-11
 C3H6,cyclo-     1.846-13
 C3H7,n-propyl   1.447-15
 C3H7,i-propyl   1.143-15
 C3H8            2.839-15
 C3O2            8.674-11
 *C4             1.343-14
 C4H2,butadiyne  3.3050-7
 C4H4,1,3-cyclo- 1.197-13
 C4H6,butadiene  1.932-12
 C4H6,1butyne    1.973-13
 C4H6,2butyne    1.447-13
 C4H6,cyclo-     4.641-15
 C4H8,1-butene   3.724-16
 C4H8,cis2-buten 1.434-16
 C4H8,tr2-butene 1.613-16
 C4H8,isobutene  1.738-16
 *C5             5.400-14
 C5H6,1,3cyclo-  4.785-14
 C6H2            1.795-10
 C6H5,phenyl     6.310-15
 C6H6            1.917-13
 *H              1.8305-3
 HCO             2.3508-7
 HCCO            1.2595-9
 *H2             4.9850-1
 HCHO,formaldehy 8.9071-8
 HCOOH           3.174-12
 H2O             1.8726-5
 *O              2.071-11
 *OH             8.8964-9
 *O2             3.322-16
 C(gr)           1.1408-1

  * THERMODYNAMIC PROPERTIES FITTED TO 20000.K









         THERMODYNAMIC EQUILIBRIUM COMBUSTION PROPERTIES AT ASSIGNED

                                   PRESSURES

 CASE =                

             REACTANT                       MOLES         ENERGY      TEMP
                                                         KJ/KG-MOL      K
 FUEL        C2H4                         1.0000000     52579.505    300.000
 OXIDANT     O2                           3.0000000        54.358    300.000

 O/F=    0.85549  %FUEL= 53.894221  R,EQ.RATIO= 4.000000  PHI,EQ.RATIO= 4.000000

 THERMODYNAMIC PROPERTIES

 P, BAR            1.0000
 T, K             2057.33
 RHO, KG/CU M    8.6878-2
 H, KJ/KG         1010.91
 U, KJ/KG         -140.13
 G, KJ/KG        -31003.2
 S, KJ/(KG)(K)    15.5610

 M, (1/n)          14.861
 MW, MOL WT        13.020
 (dLV/dLP)t      -1.00060
 (dLV/dLT)p        1.0127
 Cp, KJ/(KG)(K)    2.8531
 GAMMAs            1.2508
 SON VEL,M/SEC     1199.9

 MOLE FRACTIONS

 *C              8.853-11
 *CH             2.916-10
 CH2             3.2015-8
 CH3             6.5742-6
 CH2OH           2.719-12
 CH3O            2.829-13
 CH4             1.0652-4
 CH3OH           5.676-12
 *CO             3.7518-1
 *CO2            3.1572-6
 COOH            1.419-12
 *C2             8.025-12
 C2H             3.9976-8
 C2H2,acetylene  5.5668-4
 C2H2,vinylidene 6.9274-8
 CH2CO,ketene    1.3571-7
 O(CH)2O         2.154-15
 C2H3,vinyl      3.4260-8
 CH3CO,acetyl    2.019-11
 C2H4            1.5885-6
 C2H4O,ethylen-o 8.204-16
 CH3CHO,ethanal  8.828-12
 C2H5            1.633-10
 C2H6            3.663-10
 C2H5OH          1.187-16
 C2O             1.4787-9
 *C3             9.578-11
 C3H3,1-propynl  1.775-11
 C3H3,2-propynl  7.8073-8
 C3H4,allene     7.9495-9
 C3H4,propyne    1.9381-8
 C3H4,cyclo-     3.975-11
 C3H5,allyl      5.201-11
 C3H6,propylene  4.868-11
 C3H6,cyclo-     1.846-13
 C3H7,n-propyl   1.416-15
 C3H7,i-propyl   1.128-15
 C3H8            3.186-15
 C3O2            7.607-11
 *C4             6.917-15
 C4H2,butadiyne  2.4910-7
 C4H4,1,3-cyclo- 9.567-14
 C4H6,butadiene  1.849-12
 C4H6,1butyne    1.837-13
 C4H6,2butyne    1.369-13
 C4H6,cyclo-     4.345-15
 C4H8,1-butene   3.912-16
 C4H8,cis2-buten 1.518-16
 C4H8,tr2-butene 1.707-16
 C4H8,isobutene  1.846-16
 *C5             2.745-14
 C5H6,1,3cyclo-  4.541-14
 C6H2            1.174-10
 C6H5,phenyl     5.238-15
 C6H6            1.884-13
 *H              1.5750-3
 HCO             2.0928-7
 HCCO            1.0272-9
 *H2             4.9869-1
 HCHO,formaldehy 8.7966-8
 HCOOH           3.373-12
 H2O             2.0091-5
 *O              1.590-11
 *OH             7.9051-9
 *O2             2.741-16
 C(gr)           1.2386-1

  * THERMODYNAMIC PROPERTIES FITTED TO 20000.K



