
 *******************************************************************************

         NASA-GLENN CHEMICAL EQUILIBRIUM PROGRAM CEA2, MAY 21, 2004
                   BY  BONNIE MCBRIDE AND SANFORD GORDON
      REFS: NASA RP-1311, PART I, 1994 AND NASA RP-1311, PART II, 1996

 *******************************************************************************



 problem    phi,eq.ratio=2.1,2.2,2.3,2.4,2.5,2.6,2.7,2.8,2.9,3,3.1,3.2,3.3,3.4,3.
 5,3.6,
       hp   p,bar=1,  t,k=3800
 react
   fuel=C2H6 moles=1 t,k=300
   oxid=O2 moles=3.5 t,k=300
 output
      trace=1e-16 siunits short
 end




         THERMODYNAMIC EQUILIBRIUM COMBUSTION PROPERTIES AT ASSIGNED

                                   PRESSURES

 CASE =                

             REACTANT                       MOLES         ENERGY      TEMP
                                                         KJ/KG-MOL      K
 FUEL        C2H6                         1.0000000    -83754.210    300.000
 OXIDANT     O2                           3.5000000        54.358    300.000

 O/F=    1.77363  %FUEL= 36.053843  R,EQ.RATIO= 2.100000  PHI,EQ.RATIO= 2.100000

 THERMODYNAMIC PROPERTIES

 P, BAR            1.0000
 T, K             2629.20
 RHO, KG/CU M    7.5143-2
 H, KJ/KG        -1003.16
 U, KJ/KG        -2333.95
 G, KJ/KG        -42011.5
 S, KJ/(KG)(K)    15.5973

 M, (1/n)          16.427
 (dLV/dLP)t      -1.00767
 (dLV/dLT)p        1.1666
 Cp, KJ/(KG)(K)    4.3703
 GAMMAs            1.1764
 SON VEL,M/SEC     1251.2

 MOLE FRACTIONS

 *C              9.171-12
 *CH             4.910-12
 CH2             2.860-11
 CH3             2.019-10
 CH2OH           3.932-12
 CH3O            7.116-13
 CH4             1.622-10
 CH3OH           6.050-13
 *CO             3.5915-1
 *CO2            3.4768-2
 COOH            1.1851-7
 C2H             4.582-15
 C2H2,acetylene  6.682-13
 C2H2,vinylidene 7.888-16
 CH2CO,ketene    1.774-12
 O(CH)2O         1.522-15
 CH3CO,acetyl    3.535-16
 C2H4            1.127-16
 C2O             2.522-12
 C3O2            3.986-15
 *H              2.5679-2
 HCO             1.0860-6
 HCCO            3.111-13
 HO2             5.4969-8
 *H2             3.5260-1
 HCHO,formaldehy 5.1610-8
 HCOOH           2.9857-8
 H2O             2.2332-1
 H2O2            1.4099-8
 *O              1.8101-4
 *OH             4.2511-3
 *O2             4.6528-5
 O3              1.686-13

  * THERMODYNAMIC PROPERTIES FITTED TO 20000.K









         THERMODYNAMIC EQUILIBRIUM COMBUSTION PROPERTIES AT ASSIGNED

                                   PRESSURES

 CASE =                

             REACTANT                       MOLES         ENERGY      TEMP
                                                         KJ/KG-MOL      K
 FUEL        C2H6                         1.0000000    -83754.210    300.000
 OXIDANT     O2                           3.5000000        54.358    300.000

 O/F=    1.69301  %FUEL= 37.133172  R,EQ.RATIO= 2.200000  PHI,EQ.RATIO= 2.200000

 THERMODYNAMIC PROPERTIES

 P, BAR            1.0000
 T, K             2532.44
 RHO, KG/CU M    7.6134-2
 H, KJ/KG        -1033.24
 U, KJ/KG        -2346.71
 G, KJ/KG        -40921.1
 S, KJ/(KG)(K)    15.7508

 M, (1/n)          16.031
 (dLV/dLP)t      -1.00510
 (dLV/dLT)p        1.1138
 Cp, KJ/(KG)(K)    3.8741
 GAMMAs            1.1919
 SON VEL,M/SEC     1251.2

 MOLE FRACTIONS

 *C              4.040-12
 *CH             2.797-12
 CH2             2.461-11
 CH3             2.781-10
 CH2OH           3.866-12
 CH3O            6.461-13
 CH4             3.383-10
 CH3OH           8.557-13
 *CO             3.6539-1
 *CO2            3.0550-2
 COOH            7.9453-8
 C2H             4.238-15
 C2H2,acetylene  1.165-12
 C2H2,vinylidene 1.012-15
 CH2CO,ketene    2.699-12
 O(CH)2O         1.618-15
 C2H3,vinyl      1.157-16
 CH3CO,acetyl    5.196-16
 C2H4            2.942-16
 C2O             1.934-12
 C3O2            4.882-15
 *H              1.7937-2
 HCO             8.8231-7
 HCCO            3.051-13
 HO2             1.6098-8
 *H2             3.8273-1
 HCHO,formaldehy 5.6935-8
 HCOOH           2.7401-8
 H2O             2.0110-1
 H2O2            5.5782-9
 *O              6.1793-5
 *OH             2.2286-3
 *O2             1.3278-5
 O3              1.949-14

  * THERMODYNAMIC PROPERTIES FITTED TO 20000.K









         THERMODYNAMIC EQUILIBRIUM COMBUSTION PROPERTIES AT ASSIGNED

                                   PRESSURES

 CASE =                

             REACTANT                       MOLES         ENERGY      TEMP
                                                         KJ/KG-MOL      K
 FUEL        C2H6                         1.0000000    -83754.210    300.000
 OXIDANT     O2                           3.5000000        54.358    300.000

 O/F=    1.61940  %FUEL= 38.176671  R,EQ.RATIO= 2.300000  PHI,EQ.RATIO= 2.300000

 THERMODYNAMIC PROPERTIES

 P, BAR            1.0000
 T, K             2429.57
 RHO, KG/CU M    7.7479-2
 H, KJ/KG        -1062.32
 U, KJ/KG        -2352.99
 G, KJ/KG        -39669.8
 S, KJ/(KG)(K)    15.8907

 M, (1/n)          15.651
 (dLV/dLP)t      -1.00322
 (dLV/dLT)p        1.0742
 Cp, KJ/(KG)(K)    3.4825
 GAMMAs            1.2089
 SON VEL,M/SEC     1249.1

 MOLE FRACTIONS

 *C              1.518-12
 *CH             1.397-12
 CH2             1.951-11
 CH3             3.743-10
 CH2OH           3.636-12
 CH3O            5.553-13
 CH4             7.270-10
 CH3OH           1.210-12
 *CO             3.7044-1
 *CO2            2.6993-2
 COOH            5.0810-8
 C2H             3.569-15
 C2H2,acetylene  2.009-12
 C2H2,vinylidene 1.226-15
 CH2CO,ketene    4.102-12
 O(CH)2O         1.679-15
 C2H3,vinyl      1.827-16
 CH3CO,acetyl    7.506-16
 C2H4            7.884-16
 C2O             1.370-12
 C3O2            5.896-15
 *H              1.1734-2
 HCO             6.8240-7
 HCCO            2.832-13
 HO2             4.1125-9
 *H2             4.1048-1
 HCHO,formaldehy 6.1903-8
 HCOOH           2.4870-8
 H2O             1.7926-1
 H2O2            1.9903-9
 *O              1.8496-5
 *OH             1.0789-3
 *O2             3.3321-6
 O3              1.791-15

  * THERMODYNAMIC PROPERTIES FITTED TO 20000.K









         THERMODYNAMIC EQUILIBRIUM COMBUSTION PROPERTIES AT ASSIGNED

                                   PRESSURES

 CASE =                

             REACTANT                       MOLES         ENERGY      TEMP
                                                         KJ/KG-MOL      K
 FUEL        C2H6                         1.0000000    -83754.210    300.000
 OXIDANT     O2                           3.5000000        54.358    300.000

 O/F=    1.55193  %FUEL= 39.186093  R,EQ.RATIO= 2.400000  PHI,EQ.RATIO= 2.400000

 THERMODYNAMIC PROPERTIES

 P, BAR            1.0000
 T, K             2321.80
 RHO, KG/CU M    7.9194-2
 H, KJ/KG        -1090.46
 U, KJ/KG        -2353.17
 G, KJ/KG        -38279.0
 S, KJ/(KG)(K)    16.0172

 M, (1/n)          15.288
 (dLV/dLP)t      -1.00191
 (dLV/dLT)p        1.0458
 Cp, KJ/(KG)(K)    3.1849
 GAMMAs            1.2268
 SON VEL,M/SEC     1244.6

 MOLE FRACTIONS

 *C              4.812-13
 *CH             6.065-13
 CH2             1.421-11
 CH3             4.945-10
 CH2OH           3.275-12
 CH3O            4.522-13
 CH4             1.6286-9
 CH3OH           1.721-12
 *CO             3.7449-1
 *CO2            2.3981-2
 COOH            3.0884-8
 C2H             2.733-15
 C2H2,acetylene  3.459-12
 C2H2,vinylidene 1.406-15
 CH2CO,ketene    6.272-12
 O(CH)2O         1.707-15
 C2H3,vinyl      2.813-16
 CH3CO,acetyl    1.073-15
 C2H4            2.202-15
 CH3CHO,ethanal  1.387-16
 C2O             8.923-13
 C3O2            7.052-15
 *H              7.1568-3
 HCO             5.0141-7
 HCCO            2.488-13
 HO2             9.032-10
 *H2             4.3572-1
 HCHO,formaldehy 6.6513-8
 HCOOH           2.2355-8
 H2O             1.5817-1
 H2O2            6.339-10
 *O              4.7887-6
 *OH             4.7867-4
 *O2             7.2408-7
 O3              1.274-16

  * THERMODYNAMIC PROPERTIES FITTED TO 20000.K









         THERMODYNAMIC EQUILIBRIUM COMBUSTION PROPERTIES AT ASSIGNED

                                   PRESSURES

 CASE =                

             REACTANT                       MOLES         ENERGY      TEMP
                                                         KJ/KG-MOL      K
 FUEL        C2H6                         1.0000000    -83754.210    300.000
 OXIDANT     O2                           3.5000000        54.358    300.000

 O/F=    1.48985  %FUEL= 40.163083  R,EQ.RATIO= 2.500000  PHI,EQ.RATIO= 2.500000

 THERMODYNAMIC PROPERTIES

 P, BAR            1.0000
 T, K             2210.77
 RHO, KG/CU M    8.1286-2
 H, KJ/KG        -1117.68
 U, KJ/KG        -2347.90
 G, KJ/KG        -36778.0
 S, KJ/(KG)(K)    16.1303

 M, (1/n)          14.942
 (dLV/dLP)t      -1.00106
 (dLV/dLT)p        1.0266
 Cp, KJ/(KG)(K)    2.9712
 GAMMAs            1.2443
 SON VEL,M/SEC     1237.2

 MOLE FRACTIONS

 *C              1.278-13
 *CH             2.282-13
 CH2             9.524-12
 CH3             6.452-10
 CH2OH           2.831-12
 CH3O            3.495-13
 CH4             3.8456-9
 CH3OH           2.480-12
 *CO             3.7774-1
 *CO2            2.1404-2
 COOH            1.7791-8
 C2H             1.907-15
 C2H2,acetylene  5.995-12
 C2H2,vinylidene 1.537-15
 CH2CO,ketene    9.718-12
 O(CH)2O         1.704-15
 C2H3,vinyl      4.258-16
 CH3CO,acetyl    1.532-15
 C2H4            6.496-15
 CH3CHO,ethanal  3.101-16
 C2O             5.347-13
 C3O2            8.394-15
 *H              4.0590-3
 HCO             3.4968-7
 HCCO            2.074-13
 HO2             1.685-10
 *H2             4.5854-1
 HCHO,formaldehy 7.0814-8
 HCOOH           1.9924-8
 H2O             1.3806-1
 H2O2            1.787-10
 *O              1.0611-6
 *OH             1.9340-4
 *O2             1.3452-7

  * THERMODYNAMIC PROPERTIES FITTED TO 20000.K









         THERMODYNAMIC EQUILIBRIUM COMBUSTION PROPERTIES AT ASSIGNED

                                   PRESSURES

 CASE =                

             REACTANT                       MOLES         ENERGY      TEMP
                                                         KJ/KG-MOL      K
 FUEL        C2H6                         1.0000000    -83754.210    300.000
 OXIDANT     O2                           3.5000000        54.358    300.000

 O/F=    1.43255  %FUEL= 41.109178  R,EQ.RATIO= 2.600000  PHI,EQ.RATIO= 2.600000

 THERMODYNAMIC PROPERTIES

 P, BAR            1.0000
 T, K             2098.43
 RHO, KG/CU M    8.3753-2
 H, KJ/KG        -1144.05
 U, KJ/KG        -2338.04
 G, KJ/KG        -35201.9
 S, KJ/(KG)(K)    16.2302

 M, (1/n)          14.613
 (dLV/dLP)t      -1.00055
 (dLV/dLT)p        1.0145
 Cp, KJ/(KG)(K)    2.8283
 GAMMAs            1.2602
 SON VEL,M/SEC     1226.7

 MOLE FRACTIONS

 *C              2.841-14
 *CH             7.448-14
 CH2             5.888-12
 CH3             8.362-10
 CH2OH           2.355-12
 CH3O            2.570-13
 CH4             9.6581-9
 CH3OH           3.638-12
 *CO             3.8039-1
 *CO2            1.9165-2
 COOH            9.6935-9
 C2H             1.220-15
 C2H2,acetylene  1.056-11
 C2H2,vinylidene 1.611-15
 CH2CO,ketene    1.536-11
 O(CH)2O         1.679-15
 C2H3,vinyl      6.400-16
 CH3CO,acetyl    2.197-15
 C2H4            2.051-14
 CH3CHO,ethanal  7.309-16
 C2O             2.954-13
 C3O2            1.000-14
 *H              2.1394-3
 HCO             2.3153-7
 HCCO            1.647-13
 HO2             2.648-11
 *H2             4.7916-1
 HCHO,formaldehy 7.4897-8
 HCOOH           1.7614-8
 H2O             1.1907-1
 H2O2            4.429-11
 *O              1.9997-7
 *OH             7.0873-5
 *O2             2.1172-8

  * THERMODYNAMIC PROPERTIES FITTED TO 20000.K









         THERMODYNAMIC EQUILIBRIUM COMBUSTION PROPERTIES AT ASSIGNED

                                   PRESSURES

 CASE =                

             REACTANT                       MOLES         ENERGY      TEMP
                                                         KJ/KG-MOL      K
 FUEL        C2H6                         1.0000000    -83754.210    300.000
 OXIDANT     O2                           3.5000000        54.358    300.000

 O/F=    1.37949  %FUEL= 42.025821  R,EQ.RATIO= 2.700000  PHI,EQ.RATIO= 2.700000

 THERMODYNAMIC PROPERTIES

 P, BAR            1.0000
 T, K             1986.66
 RHO, KG/CU M    8.6585-2
 H, KJ/KG        -1169.60
 U, KJ/KG        -2324.54
 G, KJ/KG        -33585.7
 S, KJ/(KG)(K)    16.3169

 M, (1/n)          14.302
 (dLV/dLP)t      -1.00027
 (dLV/dLT)p        1.0074
 Cp, KJ/(KG)(K)    2.7399
 GAMMAs            1.2740
 SON VEL,M/SEC     1213.0

 MOLE FRACTIONS

 *C              5.307-15
 *CH             2.117-14
 CH2             3.375-12
 CH3             1.0832-9
 CH2OH           1.890-12
 CH3O            1.805-13
 CH4             2.5998-8
 CH3OH           5.454-12
 *CO             3.8261-1
 *CO2            1.7171-2
 COOH            4.9860-9
 C2H             7.217-16
 C2H2,acetylene  1.907-11
 C2H2,vinylidene 1.637-15
 CH2CO,ketene    2.493-11
 O(CH)2O         1.636-15
 C2H3,vinyl      9.648-16
 CH3CO,acetyl    3.191-15
 C2H4            7.005-14
 CH3CHO,ethanal  1.831-15
 C2O             1.512-13
 C3O2            1.200-14
 *H              1.0487-3
 HCO             1.4573-7
 HCCO            1.253-13
 HO2             3.483-12
 *H2             4.9788-1
 HCHO,formaldehy 7.8870-8
 HCOOH           1.5440-8
 H2O             1.0126-1
 H2O2            9.602-12
 *O              3.1938-8
 *OH             2.3486-5
 *O2             2.8032-9

  * THERMODYNAMIC PROPERTIES FITTED TO 20000.K









         THERMODYNAMIC EQUILIBRIUM COMBUSTION PROPERTIES AT ASSIGNED

                                   PRESSURES

 CASE =                

             REACTANT                       MOLES         ENERGY      TEMP
                                                         KJ/KG-MOL      K
 FUEL        C2H6                         1.0000000    -83754.210    300.000
 OXIDANT     O2                           3.5000000        54.358    300.000

 O/F=    1.33022  %FUEL= 42.914365  R,EQ.RATIO= 2.800000  PHI,EQ.RATIO= 2.800000

 THERMODYNAMIC PROPERTIES

 P, BAR            1.0000
 T, K             1876.97
 RHO, KG/CU M    8.9773-2
 H, KJ/KG        -1194.37
 U, KJ/KG        -2308.28
 G, KJ/KG        -31958.7
 S, KJ/(KG)(K)    16.3904

 M, (1/n)          14.010
 (dLV/dLP)t      -1.00012
 (dLV/dLT)p        1.0035
 Cp, KJ/(KG)(K)    2.6897
 GAMMAs            1.2855
 SON VEL,M/SEC     1196.6

 MOLE FRACTIONS

 *C              8.362-16
 *CH             5.267-15
 CH2             1.805-12
 CH3             1.4117-9
 CH2OH           1.466-12
 CH3O            1.214-13
 CH4             7.5601-8
 CH3OH           8.384-12
 *CO             3.8456-1
 *CO2            1.5342-2
 COOH            2.4135-9
 C2H             3.989-16
 C2H2,acetylene  3.576-11
 C2H2,vinylidene 1.628-15
 CH2CO,ketene    4.183-11
 O(CH)2O         1.583-15
 C2H3,vinyl      1.476-15
 CH3CO,acetyl    4.731-15
 C2H4            2.623-13
 CH3CHO,ethanal  4.916-15
 CH3COOH         1.445-16
 C2H6            1.204-16
 C2O             7.203-14
 C3O2            1.459-14
 *H              4.7837-4
 HCO             8.7259-8
 HCCO            9.182-14
 HO2             3.801-13
 *H2             5.1498-1
 HCHO,formaldehy 8.2841-8
 HCOOH           1.3395-8
 H2O             8.4627-2
 H2O2            1.807-12
 *O              4.3019-9
 *OH             7.0086-6
 *O2             3.093-10

  * THERMODYNAMIC PROPERTIES FITTED TO 20000.K









         THERMODYNAMIC EQUILIBRIUM COMBUSTION PROPERTIES AT ASSIGNED

                                   PRESSURES

 CASE =                

             REACTANT                       MOLES         ENERGY      TEMP
                                                         KJ/KG-MOL      K
 FUEL        C2H6                         1.0000000    -83754.210    300.000
 OXIDANT     O2                           3.5000000        54.358    300.000

 O/F=    1.28435  %FUEL= 43.776084  R,EQ.RATIO= 2.900000  PHI,EQ.RATIO= 2.900000

 THERMODYNAMIC PROPERTIES

 P, BAR            1.0000
 T, K             1770.32
 RHO, KG/CU M    9.3321-2
 H, KJ/KG        -1218.38
 U, KJ/KG        -2289.95
 G, KJ/KG        -30341.5
 S, KJ/(KG)(K)    16.4508

 M, (1/n)          13.736
 (dLV/dLP)t      -1.00005
 (dLV/dLT)p        1.0016
 Cp, KJ/(KG)(K)    2.6634
 GAMMAs            1.2952
 SON VEL,M/SEC     1178.1

 MOLE FRACTIONS

 *C              1.113-16
 *CH             1.150-15
 CH2             9.042-13
 CH3             1.8649-9
 CH2OH           1.101-12
 CH3O            7.821-14
 CH4             2.3993-7
 CH3OH           1.326-11
 *CO             3.8636-1
 *CO2            1.3604-2
 COOH            1.0928-9
 C2H             2.082-16
 C2H2,acetylene  7.053-11
 C2H2,vinylidene 1.604-15
 CH2CO,ketene    7.321-11
 O(CH)2O         1.523-15
 C2H3,vinyl      2.322-15
 CH3CO,acetyl    7.225-15
 C2H4            1.094-12
 CH3CHO,ethanal  1.430-14
 CH3COOH         3.392-16
 C2H6            8.930-16
 C2O             3.210-14
 C3O2            1.812-14
 *H              2.0278-4
 HCO             4.9682-8
 HCCO            6.524-14
 HO2             3.388-14
 *H2             5.3069-1
 HCHO,formaldehy 8.6912-8
 HCOOH           1.1459-8
 H2O             6.9145-2
 H2O2            2.909-13
 *O              4.837-10
 *OH             1.8683-6
 *O2             2.800-11

  * THERMODYNAMIC PROPERTIES FITTED TO 20000.K









         THERMODYNAMIC EQUILIBRIUM COMBUSTION PROPERTIES AT ASSIGNED

                                   PRESSURES

 CASE =                

             REACTANT                       MOLES         ENERGY      TEMP
                                                         KJ/KG-MOL      K
 FUEL        C2H6                         1.0000000    -83754.210    300.000
 OXIDANT     O2                           3.5000000        54.358    300.000

 O/F=    1.24154  %FUEL= 44.612175  R,EQ.RATIO= 3.000000  PHI,EQ.RATIO= 3.000000

 THERMODYNAMIC PROPERTIES

 P, BAR            1.0000
 T, K             1667.17
 RHO, KG/CU M    9.7244-2
 H, KJ/KG        -1241.69
 U, KJ/KG        -2270.02
 G, KJ/KG        -28746.4
 S, KJ/(KG)(K)    16.4979

 M, (1/n)          13.480
 (dLV/dLP)t      -1.00002
 (dLV/dLT)p        1.0007
 Cp, KJ/(KG)(K)    2.6506
 GAMMAs            1.3038
 SON VEL,M/SEC     1157.9

 MOLE FRACTIONS

 *CH             2.201-16
 CH2             4.264-13
 CH3             2.5216-9
 CH2OH           8.001-13
 CH3O            4.825-14
 CH4             8.4344-7
 CH3OH           2.164-11
 *CO             3.8810-1
 *CO2            1.1882-2
 COOH            4.579-10
 C2H             1.038-16
 C2H2,acetylene  1.493-10
 C2H2,vinylidene 1.590-15
 CH2CO,ketene    1.352-10
 O(CH)2O         1.461-15
 C2H3,vinyl      3.830-15
 CH3CO,acetyl    1.149-14
 C2H4            5.214-12
 CH3CHO,ethanal  4.575-14
 CH3COOH         8.571-16
 C2H5            2.201-16
 C2H6            7.926-15
 C2O             1.343-14
 C3O2            2.322-14
 *H              7.9552-5
 HCO             2.6830-8
 HCCO            4.524-14
 HO2             2.400-15
 *H2             5.4515-1
 HCHO,formaldehy 9.1179-8
 HCOOH           9.6039-9
 H2O             5.4783-2
 H2O2            3.913-14
 *O              4.456-11
 *OH             4.3859-7
 *O2             2.022-12

  * THERMODYNAMIC PROPERTIES FITTED TO 20000.K









         THERMODYNAMIC EQUILIBRIUM COMBUSTION PROPERTIES AT ASSIGNED

                                   PRESSURES

 CASE =                

             REACTANT                       MOLES         ENERGY      TEMP
                                                         KJ/KG-MOL      K
 FUEL        C2H6                         1.0000000    -83754.210    300.000
 OXIDANT     O2                           3.5000000        54.358    300.000

 O/F=    1.20149  %FUEL= 45.423763  R,EQ.RATIO= 3.100000  PHI,EQ.RATIO= 3.100000

 THERMODYNAMIC PROPERTIES

 P, BAR            1.0000
 T, K             1567.63
 RHO, KG/CU M    1.0157-1
 H, KJ/KG        -1264.31
 U, KJ/KG        -2248.81
 G, KJ/KG        -27179.6
 S, KJ/(KG)(K)    16.5316

 M, (1/n)          13.239
 (dLV/dLP)t      -1.00002
 (dLV/dLT)p        1.0004
 Cp, KJ/(KG)(K)    2.6443
 GAMMAs            1.3117
 SON VEL,M/SEC     1136.4

 MOLE FRACTIONS

 CH2             1.903-13
 CH3             3.5411-9
 CH2OH           5.611-13
 CH3O            2.842-14
 CH4             3.3591-6
 CH3OH           3.665-11
 *CO             3.8990-1
 *CO2            1.0098-2
 COOH            1.743-10
 C2H2,acetylene  3.495-10
 C2H2,vinylidene 1.625-15
 CH2CO,ketene    2.681-10
 O(CH)2O         1.397-15
 C2H3,vinyl      6.807-15
 CH3CO,acetyl    1.936-14
 C2H4            2.943-11
 CH3CHO,ethanal  1.646-13
 CH3COOH         2.354-15
 C2H5            9.412-16
 C2H6            8.787-14
 C2O             5.304-15
 C3H4,propyne    1.740-16
 C3O2            3.118-14
 *H              2.8678-5
 HCO             1.3679-8
 HCCO            3.090-14
 HO2             1.292-16
 *H2             5.5846-1
 HCHO,formaldehy 9.5735-8
 HCOOH           7.7923-9
 H2O             4.1518-2
 H2O2            4.228-15
 *O              3.262-12
 *OH             8.8578-8
 *O2             1.114-13

  * THERMODYNAMIC PROPERTIES FITTED TO 20000.K









         THERMODYNAMIC EQUILIBRIUM COMBUSTION PROPERTIES AT ASSIGNED

                                   PRESSURES

 CASE =                

             REACTANT                       MOLES         ENERGY      TEMP
                                                         KJ/KG-MOL      K
 FUEL        C2H6                         1.0000000    -83754.210    300.000
 OXIDANT     O2                           3.5000000        54.358    300.000

 O/F=    1.16394  %FUEL= 46.211911  R,EQ.RATIO= 3.200000  PHI,EQ.RATIO= 3.200000

 THERMODYNAMIC PROPERTIES

 P, BAR            1.0000
 T, K             1471.62
 RHO, KG/CU M    1.0636-1
 H, KJ/KG        -1286.27
 U, KJ/KG        -2226.48
 G, KJ/KG        -25643.6
 S, KJ/(KG)(K)    16.5514

 M, (1/n)          13.014
 (dLV/dLP)t      -1.00007
 (dLV/dLT)p        1.0007
 Cp, KJ/(KG)(K)    2.6418
 GAMMAs            1.3195
 SON VEL,M/SEC     1113.8

 MOLE FRACTIONS

 CH2             8.155-14
 CH3             5.2972-9
 CH2OH           3.786-13
 CH3O            1.591-14
 CH4             1.5714-5
 CH3OH           6.473-11
 *CO             3.9183-1
 *CO2            8.1622-3
 COOH            5.847-11
 C2H2,acetylene  9.541-10
 C2H2,vinylidene 1.790-15
 CH2CO,ketene    5.882-10
 O(CH)2O         1.334-15
 C2H3,vinyl      1.371-14
 CH3CO,acetyl    3.554-14
 C2H4            2.094-10
 CH3CHO,ethanal  6.903-13
 CH3COOH         7.108-15
 C2H5            4.934-15
 C2H6            1.303-12
 C2O             2.003-15
 C3H3,2-propynl  2.113-16
 C3H4,allene     6.263-16
 C3H4,propyne    1.798-15
 C3H6,propylene  2.438-16
 C3O2            4.504-14
 *H              9.4041-6
 HCO             6.5405-9
 HCCO            2.119-14
 *H2             5.7063-1
 HCHO,formaldehy 1.0068-7
 HCOOH           5.9826-9
 H2O             2.9354-2
 H2O2            3.435-16
 *O              1.807-13
 *OH             1.4812-8
 *O2             4.357-15

  * THERMODYNAMIC PROPERTIES FITTED TO 20000.K









         THERMODYNAMIC EQUILIBRIUM COMBUSTION PROPERTIES AT ASSIGNED

                                   PRESSURES

 CASE =                

             REACTANT                       MOLES         ENERGY      TEMP
                                                         KJ/KG-MOL      K
 FUEL        C2H6                         1.0000000    -83754.210    300.000
 OXIDANT     O2                           3.5000000        54.358    300.000

 O/F=    1.12867  %FUEL= 46.977618  R,EQ.RATIO= 3.300000  PHI,EQ.RATIO= 3.300000

 THERMODYNAMIC PROPERTIES

 P, BAR            1.0000
 T, K             1379.26
 RHO, KG/CU M    1.1165-1
 H, KJ/KG        -1307.61
 U, KJ/KG        -2203.27
 G, KJ/KG        -24143.4
 S, KJ/(KG)(K)    16.5566

 M, (1/n)          12.804
 (dLV/dLP)t      -1.00037
 (dLV/dLT)p        1.0038
 Cp, KJ/(KG)(K)    2.6556
 GAMMAs            1.3263
 SON VEL,M/SEC     1089.9

 MOLE FRACTIONS

 CH2             3.495-14
 CH3             8.8938-9
 CH2OH           2.449-13
 CH3O            8.419-15
 CH4             9.1860-5
 CH3OH           1.198-10
 *CO             3.9401-1
 *CO2            5.9669-3
 COOH            1.630-11
 C2H2,acetylene  3.3817-9
 C2H2,vinylidene 2.345-15
 CH2CO,ketene    1.5105-9
 O(CH)2O         1.273-15
 C2H3,vinyl      3.473-14
 CH3CO,acetyl    7.509-14
 C2H4            2.1071-9
 CH3CHO,ethanal  3.589-12
 CH3COOH         2.386-14
 C2H5            3.548-14
 C2H6            2.920-11
 C2H5OH          3.895-16
 C2O             7.541-16
 C3H3,2-propynl  1.497-15
 C3H4,allene     9.959-15
 C3H4,propyne    2.968-14
 C3H5,allyl      1.407-16
 C3H6,propylene  1.055-14
 C3O2            7.385-14
 *H              2.7789-6
 HCO             2.9144-9
 HCCO            1.527-14
 *H2             5.8155-1
 HCHO,formaldehy 1.0609-7
 HCOOH           4.1329-9
 H2O             1.8372-2
 *O              7.037-15
 *OH             1.9223-9
 *O2             1.065-16

  * THERMODYNAMIC PROPERTIES FITTED TO 20000.K









         THERMODYNAMIC EQUILIBRIUM COMBUSTION PROPERTIES AT ASSIGNED

                                   PRESSURES

 CASE =                

             REACTANT                       MOLES         ENERGY      TEMP
                                                         KJ/KG-MOL      K
 FUEL        C2H6                         1.0000000    -83754.210    300.000
 OXIDANT     O2                           3.5000000        54.358    300.000

 O/F=    1.09548  %FUEL= 47.721832  R,EQ.RATIO= 3.400000  PHI,EQ.RATIO= 3.400000

 THERMODYNAMIC PROPERTIES

 P, BAR            1.0000
 T, K             1293.70
 RHO, KG/CU M    1.1733-1
 H, KJ/KG        -1328.35
 U, KJ/KG        -2180.68
 G, KJ/KG        -22733.9
 S, KJ/(KG)(K)    16.5460

 M, (1/n)          12.620
 (dLV/dLP)t      -1.00272
 (dLV/dLT)p        1.0297
 Cp, KJ/(KG)(K)    2.8346
 GAMMAs            1.3222
 SON VEL,M/SEC     1061.6

 MOLE FRACTIONS

 CH2             1.760-14
 CH3             1.8833-8
 CH2OH           1.538-13
 CH3O            4.296-15
 CH4             7.2441-4
 CH3OH           2.275-10
 *CO             3.9637-1
 *CO2            3.4840-3
 COOH            3.438-12
 C2H2,acetylene  1.9543-8
 C2H2,vinylidene 4.736-15
 CH2CO,ketene    5.0363-9
 O(CH)2O         1.215-15
 C2H3,vinyl      1.404-13
 CH3CO,acetyl    2.037-13
 C2H4            3.6403-8
 CH3CHO,ethanal  2.508-11
 CH3COOH         8.561-14
 C2H5            4.292-13
 C2H6            1.1686-9
 C2H5OH          4.214-15
 C2O             3.339-16
 C3H3,2-propynl  2.217-14
 C3H4,allene     3.452-13
 C3H4,propyne    1.070-12
 C3H5,allyl      5.772-15
 C3H6,propylene  1.046-12
 C3H6,cyclo-     1.184-15
 C3H6O,acetone   5.256-16
 C3H6O,propanal  1.020-16
 C3H8            5.986-15
 C3O2            1.549-13
 C4H2,butadiyne  2.397-16
 C4H6,butadiene  3.092-16
 *H              7.6914-7
 HCO             1.2412-9
 HCCO            1.338-14
 *H2             5.9040-1
 HCHO,formaldehy 1.1174-7
 HCOOH           2.2719-9
 H2O             9.0223-3
 *O              1.868-16
 *OH             1.805-10

  * THERMODYNAMIC PROPERTIES FITTED TO 20000.K









         THERMODYNAMIC EQUILIBRIUM COMBUSTION PROPERTIES AT ASSIGNED

                                   PRESSURES

 CASE =                

             REACTANT                       MOLES         ENERGY      TEMP
                                                         KJ/KG-MOL      K
 FUEL        C2H6                         1.0000000    -83754.210    300.000
 OXIDANT     O2                           3.5000000        54.358    300.000

 O/F=    1.06418  %FUEL= 48.445443  R,EQ.RATIO= 3.500000  PHI,EQ.RATIO= 3.500000

 THERMODYNAMIC PROPERTIES

 P, BAR            1.0000
 T, K             1238.29
 RHO, KG/CU M    1.2178-1
 H, KJ/KG        -1348.52
 U, KJ/KG        -2169.70
 G, KJ/KG        -21804.2
 S, KJ/(KG)(K)    16.5193

 M, (1/n)          12.538
 MW, MOL WT        12.519
 (dLV/dLP)t      -1.00972
 (dLV/dLT)p        1.1154
 Cp, KJ/(KG)(K)    3.5754
 GAMMAs            1.2837
 SON VEL,M/SEC     1026.7

 MOLE FRACTIONS

 CH2             1.418-14
 CH3             4.2648-8
 CH2OH           1.085-13
 CH3O            2.614-15
 CH4             4.2285-3
 CH3OH           3.556-10
 *CO             3.9585-1
 *CO2            1.7611-3
 COOH            8.314-13
 C2H2,acetylene  1.2212-7
 C2H2,vinylidene 1.384-14
 CH2CO,ketene    1.5838-8
 O(CH)2O         1.161-15
 C2H3,vinyl      6.753-13
 CH3CO,acetyl    5.512-13
 C2H4            4.9836-7
 C2H4O,ethylen-o 1.456-16
 CH3CHO,ethanal  1.338-10
 CH3COOH         2.119-13
 C2H5            4.531-12
 C2H6            2.9178-8
 C2H5OH          3.066-14
 C2O             2.460-16
 C3H3,2-propynl  3.629-13
 C3H4,allene     1.041-11
 C3H4,propyne    3.317-11
 C3H4,cyclo-     1.935-15
 C3H5,allyl      1.962-13
 C3H6,propylene  6.697-11
 C3H6,cyclo-     6.587-14
 C3H6O,acetone   1.424-14
 C3H6O,propanal  2.375-15
 C3H7,i-propyl   1.185-16
 C3H8            6.619-13
 C3O2            3.500-13
 C4H2,butadiyne  9.260-15
 C4H6,butadiene  5.219-14
 C4H6,1butyne    8.000-16
 C4H6,2butyne    1.508-15
 C4H8,1-butene   1.424-15
 C4H8,cis2-buten 8.469-16
 C4H8,tr2-butene 9.588-16
 C4H8,isobutene  1.284-15
 C5H6,1,3cyclo-  6.582-16
 C6H6            2.220-14
 *H              3.0364-7
 HCO             6.652-10
 HCCO            1.608-14
 *H2             5.9261-1
 HCHO,formaldehy 1.1478-7
 HCOOH           1.0959-9
 H2O             4.0087-3
 *OH             2.442-11
 C(gr)           1.5400-3

  * THERMODYNAMIC PROPERTIES FITTED TO 20000.K









         THERMODYNAMIC EQUILIBRIUM COMBUSTION PROPERTIES AT ASSIGNED

                                   PRESSURES

 CASE =                

             REACTANT                       MOLES         ENERGY      TEMP
                                                         KJ/KG-MOL      K
 FUEL        C2H6                         1.0000000    -83754.210    300.000
 OXIDANT     O2                           3.5000000        54.358    300.000

 O/F=    1.03462  %FUEL= 49.149296  R,EQ.RATIO= 3.600000  PHI,EQ.RATIO= 3.600000

 THERMODYNAMIC PROPERTIES

 P, BAR            1.0000
 T, K             1214.15
 RHO, KG/CU M    1.2412-1
 H, KJ/KG        -1368.14
 U, KJ/KG        -2173.83
 G, KJ/KG        -21385.4
 S, KJ/(KG)(K)    16.4867

 M, (1/n)          12.530
 MW, MOL WT        12.360
 (dLV/dLP)t      -1.01217
 (dLV/dLT)p        1.1486
 Cp, KJ/(KG)(K)    3.9080
 GAMMAs            1.2688
 SON VEL,M/SEC     1011.1

 MOLE FRACTIONS

 CH2             6.725-15
 CH3             3.2796-8
 CH2OH           9.023-14
 CH3O            2.032-15
 CH4             5.0650-3
 CH3OH           4.294-10
 *CO             3.8312-1
 *CO2            2.3109-3
 COOH            7.773-13
 C2H2,acetylene  7.9029-8
 C2H2,vinylidene 6.294-15
 CH2CO,ketene    1.3855-8
 O(CH)2O         1.087-15
 C2H3,vinyl      3.883-13
 CH3CO,acetyl    4.513-13
 C2H4            4.6728-7
 C2H4O,ethylen-o 1.315-16
 CH3CHO,ethanal  1.506-10
 CH3COOH         3.108-13
 C2H5            3.778-12
 C2H6            3.6409-8
 C2H5OH          4.014-14
 C2O             1.090-16
 C3H3,2-propynl  1.942-13
 C3H4,allene     7.428-12
 C3H4,propyne    2.397-11
 C3H4,cyclo-     1.171-15
 C3H5,allyl      1.485-13
 C3H6,propylene  6.820-11
 C3H6,cyclo-     6.285-14
 C3H6O,acetone   1.809-14
 C3H6O,propanal  2.812-15
 C3H7,i-propyl   1.064-16
 C3H8            8.746-13
 C3O2            2.557-13
 C4H2,butadiyne  3.879-15
 C4H6,butadiene  4.396-14
 C4H6,1butyne    6.112-16
 C4H6,2butyne    1.206-15
 C4H8,1-butene   1.537-15
 C4H8,cis2-buten 9.327-16
 C4H8,tr2-butene 1.057-15
 C4H8,isobutene  1.431-15
 C5H6,1,3cyclo-  5.351-16
 C6H6            2.001-14
 *H              1.9574-7
 HCO             4.839-10
 HCCO            8.973-15
 *H2             5.9086-1
 HCHO,formaldehy 1.1332-7
 HCOOH           1.4174-9
 H2O             5.0886-3
 *OH             1.779-11
 C(gr)           1.3557-2

  * THERMODYNAMIC PROPERTIES FITTED TO 20000.K



