
 *******************************************************************************

         NASA-GLENN CHEMICAL EQUILIBRIUM PROGRAM CEA2, MAY 21, 2004
                   BY  BONNIE MCBRIDE AND SANFORD GORDON
      REFS: NASA RP-1311, PART I, 1994 AND NASA RP-1311, PART II, 1996

 *******************************************************************************



 problem    phi,eq.ratio=2.1,2.2,2.3,2.4,2.5,2.6,2.7,2.8,2.9,3,3.1,3.2,3.3,3.4,3.
 5,3.6,
       hp   p,bar=1,  t,k=3800
 react
   fuel=C8H18,isooctane moles=1 t,k=300
   oxid=O2 moles=12.5 t,k=300
 output
      trace=1e-16 siunits short
 end




         THERMODYNAMIC EQUILIBRIUM COMBUSTION PROPERTIES AT ASSIGNED

                                   PRESSURES

 CASE =                

             REACTANT                       MOLES         ENERGY      TEMP
                                                         KJ/KG-MOL      K
 FUEL        C8H18,isooctane              1.0000000   -223660.458    300.000
 OXIDANT     O2                          12.5000000        54.358    300.000

 O/F=    1.66744  %FUEL= 37.489147  R,EQ.RATIO= 2.100000  PHI,EQ.RATIO= 2.100000

 THERMODYNAMIC PROPERTIES

 P, BAR            1.0000
 T, K             2681.26
 RHO, KG/CU M    7.8978-2
 H, KJ/KG         -732.98
 U, KJ/KG        -1999.15
 G, KJ/KG        -40096.9
 S, KJ/(KG)(K)    14.6811

 M, (1/n)          17.607
 (dLV/dLP)t      -1.00892
 (dLV/dLT)p        1.1899
 Cp, KJ/(KG)(K)    4.2434
 GAMMAs            1.1746
 SON VEL,M/SEC     1219.5

 MOLE FRACTIONS

 *C              2.010-11
 *CH             9.171-12
 CH2             4.205-11
 CH3             2.271-10
 CH2OH           4.342-12
 CH3O            8.187-13
 CH4             1.437-10
 CH3OH           5.396-13
 *CO             4.2555-1
 *CO2            3.6733-2
 COOH            1.3950-7
 C2H             9.669-15
 C2H2,acetylene  9.924-13
 C2H2,vinylidene 1.368-15
 CH2CO,ketene    2.337-12
 O(CH)2O         1.989-15
 C2H3,vinyl      1.057-16
 CH3CO,acetyl    4.602-16
 C2H4            1.287-16
 C2O             4.986-12
 C3O2            7.430-15
 *H              2.9931-2
 HCO             1.4011-6
 HCCO            5.271-13
 HO2             6.8219-8
 *H2             3.1895-1
 HCHO,formaldehy 5.5362-8
 HCOOH           2.9107-8
 H2O             1.8378-1
 H2O2            1.4583-8
 *O              2.5863-4
 *OH             4.7423-3
 *O2             6.0241-5
 O3              2.863-13

  * THERMODYNAMIC PROPERTIES FITTED TO 20000.K









         THERMODYNAMIC EQUILIBRIUM COMBUSTION PROPERTIES AT ASSIGNED

                                   PRESSURES

 CASE =                

             REACTANT                       MOLES         ENERGY      TEMP
                                                         KJ/KG-MOL      K
 FUEL        C8H18,isooctane              1.0000000   -223660.458    300.000
 OXIDANT     O2                          12.5000000        54.358    300.000

 O/F=    1.59165  %FUEL= 38.585517  R,EQ.RATIO= 2.200000  PHI,EQ.RATIO= 2.200000

 THERMODYNAMIC PROPERTIES

 P, BAR            1.0000
 T, K             2583.72
 RHO, KG/CU M    8.0093-2
 H, KJ/KG         -754.46
 U, KJ/KG        -2003.02
 G, KJ/KG        -39007.9
 S, KJ/(KG)(K)    14.8056

 M, (1/n)          17.206
 (dLV/dLP)t      -1.00600
 (dLV/dLT)p        1.1312
 Cp, KJ/(KG)(K)    3.7320
 GAMMAs            1.1900
 SON VEL,M/SEC     1218.9

 MOLE FRACTIONS

 *C              9.461-12
 *CH             5.571-12
 CH2             3.834-11
 CH3             3.285-10
 CH2OH           4.359-12
 CH3O            7.603-13
 CH4             3.120-10
 CH3OH           7.747-13
 *CO             4.3372-1
 *CO2            3.1235-2
 COOH            9.1830-8
 C2H             9.783-15
 C2H2,acetylene  1.866-12
 C2H2,vinylidene 1.913-15
 CH2CO,ketene    3.705-12
 O(CH)2O         2.144-15
 C2H3,vinyl      1.876-16
 CH3CO,acetyl    7.097-16
 C2H4            3.619-16
 C2O             4.024-12
 C3O2            9.452-15
 *H              2.1265-2
 HCO             1.1552-6
 HCCO            5.431-13
 HO2             1.9323-8
 *H2             3.4953-1
 HCHO,formaldehy 6.1748-8
 HCOOH           2.6120-8
 H2O             1.6168-1
 H2O2            5.5621-9
 *O              8.7811-5
 *OH             2.4553-3
 *O2             1.6543-5
 O3              3.145-14

  * THERMODYNAMIC PROPERTIES FITTED TO 20000.K









         THERMODYNAMIC EQUILIBRIUM COMBUSTION PROPERTIES AT ASSIGNED

                                   PRESSURES

 CASE =                

             REACTANT                       MOLES         ENERGY      TEMP
                                                         KJ/KG-MOL      K
 FUEL        C8H18,isooctane              1.0000000   -223660.458    300.000
 OXIDANT     O2                          12.5000000        54.358    300.000

 O/F=    1.52244  %FUEL= 39.644092  R,EQ.RATIO= 2.300000  PHI,EQ.RATIO= 2.300000

 THERMODYNAMIC PROPERTIES

 P, BAR            1.0000
 T, K             2479.07
 RHO, KG/CU M    8.1598-2
 H, KJ/KG         -775.21
 U, KJ/KG        -2000.73
 G, KJ/KG        -37755.6
 S, KJ/(KG)(K)    14.9171

 M, (1/n)          16.819
 (dLV/dLP)t      -1.00383
 (dLV/dLT)p        1.0866
 Cp, KJ/(KG)(K)    3.3239
 GAMMAs            1.2074
 SON VEL,M/SEC     1216.4

 MOLE FRACTIONS

 *C              3.802-12
 *CH             2.969-12
 CH2             3.227-11
 CH3             4.658-10
 CH2OH           4.173-12
 CH3O            6.660-13
 CH4             7.015-10
 CH3OH           1.109-12
 *CO             4.4043-1
 *CO2            2.6545-2
 COOH            5.7180-8
 C2H             9.085-15
 C2H2,acetylene  3.509-12
 C2H2,vinylidene 2.548-15
 CH2CO,ketene    5.896-12
 O(CH)2O         2.251-15
 C2H3,vinyl      3.253-16
 CH3CO,acetyl    1.080-15
 C2H4            1.057-15
 C2O             3.007-12
 C3O2            1.192-14
 *H              1.4111-2
 HCO             9.0473-7
 HCCO            5.313-13
 HO2             4.6936-9
 *H2             3.7795-1
 HCHO,formaldehy 6.7761-8
 HCOOH           2.2999-8
 H2O             1.3976-1
 H2O2            1.8817-9
 *O              2.5873-5
 *OH             1.1633-3
 *O2             3.9301-6
 O3              2.674-15

  * THERMODYNAMIC PROPERTIES FITTED TO 20000.K









         THERMODYNAMIC EQUILIBRIUM COMBUSTION PROPERTIES AT ASSIGNED

                                   PRESSURES

 CASE =                

             REACTANT                       MOLES         ENERGY      TEMP
                                                         KJ/KG-MOL      K
 FUEL        C8H18,isooctane              1.0000000   -223660.458    300.000
 OXIDANT     O2                          12.5000000        54.358    300.000

 O/F=    1.45901  %FUEL= 40.666792  R,EQ.RATIO= 2.400000  PHI,EQ.RATIO= 2.400000

 THERMODYNAMIC PROPERTIES

 P, BAR            1.0000
 T, K             2368.36
 RHO, KG/CU M    8.3522-2
 H, KJ/KG         -795.25
 U, KJ/KG        -1992.55
 G, KJ/KG        -36357.8
 S, KJ/(KG)(K)    15.0157

 M, (1/n)          16.447
 (dLV/dLP)t      -1.00230
 (dLV/dLT)p        1.0540
 Cp, KJ/(KG)(K)    3.0075
 GAMMAs            1.2261
 SON VEL,M/SEC     1211.6

 MOLE FRACTIONS

 *C              1.286-12
 *CH             1.376-12
 CH2             2.501-11
 CH3             6.521-10
 CH2OH           3.811-12
 CH3O            5.501-13
 CH4             1.6574-9
 CH3OH           1.595-12
 *CO             4.4591-1
 *CO2            2.2510-2
 COOH            3.3464-8
 C2H             7.746-15
 C2H2,acetylene  6.680-12
 C2H2,vinylidene 3.251-15
 CH2CO,ketene    9.506-12
 O(CH)2O         2.308-15
 C2H3,vinyl      5.568-16
 CH3CO,acetyl    1.635-15
 C2H4            3.266-15
 CH3CHO,ethanal  1.722-16
 C2O             2.074-12
 C3O2            1.498-14
 *H              8.6919-3
 HCO             6.7092-7
 HCCO            4.941-13
 HO2             9.564-10
 *H2             4.0389-1
 HCHO,formaldehy 7.3360-8
 HCOOH           1.9866-8
 H2O             1.1849-1
 H2O2            5.554-10
 *O              6.4894-6
 *OH             4.9850-4
 *O2             7.8960-7
 O3              1.696-16

  * THERMODYNAMIC PROPERTIES FITTED TO 20000.K









         THERMODYNAMIC EQUILIBRIUM COMBUSTION PROPERTIES AT ASSIGNED

                                   PRESSURES

 CASE =                

             REACTANT                       MOLES         ENERGY      TEMP
                                                         KJ/KG-MOL      K
 FUEL        C8H18,isooctane              1.0000000   -223660.458    300.000
 OXIDANT     O2                          12.5000000        54.358    300.000

 O/F=    1.40065  %FUEL= 41.655412  R,EQ.RATIO= 2.500000  PHI,EQ.RATIO= 2.500000

 THERMODYNAMIC PROPERTIES

 P, BAR            1.0000
 T, K             2253.09
 RHO, KG/CU M    8.5886-2
 H, KJ/KG         -814.63
 U, KJ/KG        -1978.96
 G, KJ/KG        -34839.5
 S, KJ/(KG)(K)    15.1014

 M, (1/n)          16.089
 (dLV/dLP)t      -1.00128
 (dLV/dLT)p        1.0315
 Cp, KJ/(KG)(K)    2.7748
 GAMMAs            1.2451
 SON VEL,M/SEC     1204.0

 MOLE FRACTIONS

 *C              3.630-13
 *CH             5.512-13
 CH2             1.788-11
 CH3             9.091-10
 CH2OH           3.325-12
 CH3O            4.287-13
 CH4             4.1834-9
 CH3OH           2.323-12
 *CO             4.5040-1
 *CO2            1.8981-2
 COOH            1.8271-8
 C2H             6.096-15
 C2H2,acetylene  1.307-11
 C2H2,vinylidene 4.017-15
 CH2CO,ketene    1.570-11
 O(CH)2O         2.319-15
 C2H3,vinyl      9.548-16
 CH3CO,acetyl    2.492-15
 C2H4            1.093-14
 CH3CHO,ethanal  4.123-16
 C2O             1.320-12
 C3O2            1.892-14
 *H              4.9448-3
 HCO             4.6994-7
 HCCO            4.384-13
 HO2             1.597-10
 *H2             4.2731-1
 HCHO,formaldehy 7.8578-8
 HCOOH           1.6805-8
 H2O             9.8171-2
 H2O2            1.404-10
 *O              1.3596-6
 *OH             1.9087-4
 *O2             1.3097-7

  * THERMODYNAMIC PROPERTIES FITTED TO 20000.K









         THERMODYNAMIC EQUILIBRIUM COMBUSTION PROPERTIES AT ASSIGNED

                                   PRESSURES

 CASE =                

             REACTANT                       MOLES         ENERGY      TEMP
                                                         KJ/KG-MOL      K
 FUEL        C8H18,isooctane              1.0000000   -223660.458    300.000
 OXIDANT     O2                          12.5000000        54.358    300.000

 O/F=    1.34678  %FUEL= 42.611626  R,EQ.RATIO= 2.600000  PHI,EQ.RATIO= 2.600000

 THERMODYNAMIC PROPERTIES

 P, BAR            1.0000
 T, K             2135.24
 RHO, KG/CU M    8.8703-2
 H, KJ/KG         -833.36
 U, KJ/KG        -1960.73
 G, KJ/KG        -33233.9
 S, KJ/(KG)(K)    15.1742

 M, (1/n)          15.748
 (dLV/dLP)t      -1.00066
 (dLV/dLT)p        1.0171
 Cp, KJ/(KG)(K)    2.6150
 GAMMAs            1.2629
 SON VEL,M/SEC     1193.2

 MOLE FRACTIONS

 *C              8.523-14
 *CH             1.911-13
 CH2             1.186-11
 CH3             1.2766-9
 CH2OH           2.777-12
 CH3O            3.159-13
 CH4             1.1475-8
 CH3OH           3.448-12
 *CO             4.5415-1
 *CO2            1.5817-2
 COOH            9.2284-9
 C2H             4.486-15
 C2H2,acetylene  2.684-11
 C2H2,vinylidene 4.885-15
 CH2CO,ketene    2.691-11
 O(CH)2O         2.294-15
 C2H3,vinyl      1.673-15
 CH3CO,acetyl    3.876-15
 C2H4            4.061-14
 CH3CHO,ethanal  1.062-15
 C2O             7.785-13
 C3O2            2.429-14
 *H              2.5907-3
 HCO             3.1057-7
 HCCO            3.740-13
 HO2             2.134-11
 *H2             4.4837-1
 HCHO,formaldehy 8.3512-8
 HCOOH           1.3864-8
 H2O             7.9014-2
 H2O2            2.981-11
 *O              2.3405-7
 *OH             6.4519-5
 *O2             1.7503-8

  * THERMODYNAMIC PROPERTIES FITTED TO 20000.K









         THERMODYNAMIC EQUILIBRIUM COMBUSTION PROPERTIES AT ASSIGNED

                                   PRESSURES

 CASE =                

             REACTANT                       MOLES         ENERGY      TEMP
                                                         KJ/KG-MOL      K
 FUEL        C8H18,isooctane              1.0000000   -223660.458    300.000
 OXIDANT     O2                          12.5000000        54.358    300.000

 O/F=    1.29690  %FUEL= 43.537003  R,EQ.RATIO= 2.700000  PHI,EQ.RATIO= 2.700000

 THERMODYNAMIC PROPERTIES

 P, BAR            1.0000
 T, K             2016.96
 RHO, KG/CU M    9.1972-2
 H, KJ/KG         -851.50
 U, KJ/KG        -1938.78
 G, KJ/KG        -31577.1
 S, KJ/(KG)(K)    15.2336

 M, (1/n)          15.424
 (dLV/dLP)t      -1.00032
 (dLV/dLT)p        1.0086
 Cp, KJ/(KG)(K)    2.5133
 GAMMAs            1.2786
 SON VEL,M/SEC     1179.1

 MOLE FRACTIONS

 *C              1.678-14
 *CH             5.793-14
 CH2             7.382-12
 CH3             1.8335-9
 CH2OH           2.225-12
 CH3O            2.206-13
 CH4             3.4859-8
 CH3OH           5.243-12
 *CO             4.5740-1
 *CO2            1.2886-2
 COOH            4.2624-9
 C2H             3.163-15
 C2H2,acetylene  5.944-11
 C2H2,vinylidene 6.001-15
 CH2CO,ketene    4.866-11
 O(CH)2O         2.241-15
 C2H3,vinyl      3.082-15
 CH3CO,acetyl    6.258-15
 C2H4            1.730-13
 CH3CHO,ethanal  3.000-15
 C2O             4.307-13
 C3O2            3.218-14
 *H              1.2489-3
 HCO             1.9367-7
 HCCO            3.109-13
 HO2             2.220-12
 *H2             4.6732-1
 HCHO,formaldehy 8.8294-8
 HCOOH           1.1059-8
 H2O             6.1122-2
 H2O2            5.179-12
 *O              3.2560-8
 *OH             1.8986-5
 *O2             1.8312-9

  * THERMODYNAMIC PROPERTIES FITTED TO 20000.K









         THERMODYNAMIC EQUILIBRIUM COMBUSTION PROPERTIES AT ASSIGNED

                                   PRESSURES

 CASE =                

             REACTANT                       MOLES         ENERGY      TEMP
                                                         KJ/KG-MOL      K
 FUEL        C8H18,isooctane              1.0000000   -223660.458    300.000
 OXIDANT     O2                          12.5000000        54.358    300.000

 O/F=    1.25058  %FUEL= 44.433011  R,EQ.RATIO= 2.800000  PHI,EQ.RATIO= 2.800000

 THERMODYNAMIC PROPERTIES

 P, BAR            1.0000
 T, K             1900.07
 RHO, KG/CU M    9.5696-2
 H, KJ/KG         -869.06
 U, KJ/KG        -1914.04
 G, KJ/KG        -29901.2
 S, KJ/(KG)(K)    15.2795

 M, (1/n)          15.118
 (dLV/dLP)t      -1.00014
 (dLV/dLT)p        1.0040
 Cp, KJ/(KG)(K)    2.4530
 GAMMAs            1.2918
 SON VEL,M/SEC     1161.8

 MOLE FRACTIONS

 *C              2.820-15
 *CH             1.564-14
 CH2             4.407-12
 CH3             2.7582-9
 CH2OH           1.714-12
 CH3O            1.464-13
 CH4             1.2046-7
 CH3OH           8.208-12
 *CO             4.6040-1
 *CO2            1.0061-2
 COOH            1.7634-9
 C2H             2.230-15
 C2H2,acetylene  1.487-10
 C2H2,vinylidene 7.784-15
 CH2CO,ketene    9.515-11
 O(CH)2O         2.169-15
 C2H3,vinyl      6.249-15
 CH3CO,acetyl    1.076-14
 C2H4            8.875-13
 CH3CHO,ethanal  9.554-15
 CH3COOH         1.566-16
 C2H6            3.435-16
 C2O             2.281-13
 C3O2            4.504-14
 *H              5.5348-4
 HCO             1.1398-7
 HCCO            2.575-13
 HO2             1.717-13
 *H2             4.8444-1
 HCHO,formaldehy 9.3069-8
 HCOOH           8.3765-9
 H2O             4.4541-2
 H2O2            7.048-13
 *O              3.5705-9
 *OH             4.7536-6
 *O2             1.432-10

  * THERMODYNAMIC PROPERTIES FITTED TO 20000.K









         THERMODYNAMIC EQUILIBRIUM COMBUSTION PROPERTIES AT ASSIGNED

                                   PRESSURES

 CASE =                

             REACTANT                       MOLES         ENERGY      TEMP
                                                         KJ/KG-MOL      K
 FUEL        C8H18,isooctane              1.0000000   -223660.458    300.000
 OXIDANT     O2                          12.5000000        54.358    300.000

 O/F=    1.20746  %FUEL= 45.301025  R,EQ.RATIO= 2.900000  PHI,EQ.RATIO= 2.900000

 THERMODYNAMIC PROPERTIES

 P, BAR            1.0000
 T, K             1785.82
 RHO, KG/CU M    9.9884-2
 H, KJ/KG         -886.07
 U, KJ/KG        -1887.23
 G, KJ/KG        -28229.1
 S, KJ/(KG)(K)    15.3112

 M, (1/n)          14.831
 (dLV/dLP)t      -1.00006
 (dLV/dLT)p        1.0017
 Cp, KJ/(KG)(K)    2.4185
 GAMMAs            1.3030
 SON VEL,M/SEC     1142.2

 MOLE FRACTIONS

 *C              4.186-16
 *CH             3.901-15
 CH2             2.630-12
 CH3             4.5496-9
 CH2OH           1.271-12
 CH3O            9.238-14
 CH4             4.9797-7
 CH3OH           1.328-11
 *CO             4.6332-1
 *CO2            7.2153-3
 COOH            6.248-10
 C2H             1.710-15
 C2H2,acetylene  4.599-10
 C2H2,vinylidene 1.163-14
 CH2CO,ketene    2.110-10
 O(CH)2O         2.088-15
 C2H3,vinyl      1.525-14
 CH3CO,acetyl    2.068-14
 C2H4            6.024-12
 CH3CHO,ethanal  3.609-14
 CH3COOH         3.838-16
 C2H5            3.299-16
 C2H6            4.260-15
 C2O             1.205-13
 C3O2            6.976-14
 *H              2.2487-4
 HCO             6.3209-8
 HCCO            2.218-13
 HO2             8.982-15
 *H2             4.9995-1
 HCHO,formaldehy 9.7977-8
 HCOOH           5.7825-9
 H2O             2.9291-2
 H2O2            6.853-14
 *O              2.931-10
 *OH             9.6531-7
 *O2             7.610-12

  * THERMODYNAMIC PROPERTIES FITTED TO 20000.K









         THERMODYNAMIC EQUILIBRIUM COMBUSTION PROPERTIES AT ASSIGNED

                                   PRESSURES

 CASE =                

             REACTANT                       MOLES         ENERGY      TEMP
                                                         KJ/KG-MOL      K
 FUEL        C8H18,isooctane              1.0000000   -223660.458    300.000
 OXIDANT     O2                          12.5000000        54.358    300.000

 O/F=    1.16721  %FUEL= 46.142338  R,EQ.RATIO= 3.000000  PHI,EQ.RATIO= 3.000000

 THERMODYNAMIC PROPERTIES

 P, BAR            1.0000
 T, K             1674.83
 RHO, KG/CU M    1.0457-1
 H, KJ/KG         -902.56
 U, KJ/KG        -1858.86
 G, KJ/KG        -26573.5
 S, KJ/(KG)(K)    15.3275

 M, (1/n)          14.562
 (dLV/dLP)t      -1.00003
 (dLV/dLT)p        1.0008
 Cp, KJ/(KG)(K)    2.3980
 GAMMAs            1.3131
 SON VEL,M/SEC     1120.6

 MOLE FRACTIONS

 *CH             1.003-15
 CH2             1.759-12
 CH3             9.3072-9
 CH2OH           9.055-13
 CH3O            5.531-14
 CH4             2.8068-6
 CH3OH           2.234-11
 *CO             4.6635-1
 *CO2            4.2152-3
 COOH            1.673-10
 C2H             1.805-15
 C2H2,acetylene  2.2523-9
 C2H2,vinylidene 2.546-14
 CH2CO,ketene    6.021-10
 O(CH)2O         2.000-15
 C2H3,vinyl      5.728-14
 CH3CO,acetyl    5.033-14
 C2H4            6.973-11
 CH3CHO,ethanal  1.844-13
 CH3COOH         1.027-15
 C2H5            2.919-15
 C2H6            9.537-14
 C2O             7.115-14
 C3H3,2-propynl  6.877-16
 C3H4,allene     4.572-16
 C3H4,propyne    1.225-15
 C3O2            1.354-13
 *H              8.3216-5
 HCO             3.2901-8
 HCCO            2.239-13
 HO2             2.450-16
 *H2             5.1395-1
 HCHO,formaldehy 1.0315-7
 HCOOH           3.2290-9
 H2O             1.5395-2
 H2O2            3.691-15
 *O              1.570-11
 *OH             1.3951-7
 *O2             2.120-13

  * THERMODYNAMIC PROPERTIES FITTED TO 20000.K









         THERMODYNAMIC EQUILIBRIUM COMBUSTION PROPERTIES AT ASSIGNED

                                   PRESSURES

 CASE =                

             REACTANT                       MOLES         ENERGY      TEMP
                                                         KJ/KG-MOL      K
 FUEL        C8H18,isooctane              1.0000000   -223660.458    300.000
 OXIDANT     O2                          12.5000000        54.358    300.000

 O/F=    1.12956  %FUEL= 46.958163  R,EQ.RATIO= 3.100000  PHI,EQ.RATIO= 3.100000

 THERMODYNAMIC PROPERTIES

 P, BAR            1.0000
 T, K             1567.52
 RHO, KG/CU M    1.0980-1
 H, KJ/KG         -918.54
 U, KJ/KG        -1829.30
 G, KJ/KG        -24939.7
 S, KJ/(KG)(K)    15.3243

 M, (1/n)          14.310
 (dLV/dLP)t      -1.00020
 (dLV/dLT)p        1.0019
 Cp, KJ/(KG)(K)    2.3902
 GAMMAs            1.3224
 SON VEL,M/SEC     1097.5

 MOLE FRACTIONS

 *CH             5.747-16
 CH2             2.881-12
 CH3             5.2103-8
 CH2OH           6.183-13
 CH3O            3.131-14
 CH4             4.8040-5
 CH3OH           3.924-11
 *CO             4.6967-1
 *CO2            9.1152-4
 COOH            1.527-11
 C2H             1.263-14
 C2H2,acetylene  8.5171-8
 C2H2,vinylidene 3.957-13
 CH2CO,ketene    4.8966-9
 O(CH)2O         1.911-15
 C2H3,vinyl      1.610-12
 CH3CO,acetyl    3.433-13
 C2H4            6.7674-9
 CH3CHO,ethanal  2.836-12
 CH3COOH         3.038-15
 C2H5            2.101-13
 C2H6            1.906-11
 C2H5OH          1.300-16
 C2O             1.026-13
 C3H3,2-propynl  1.687-13
 C3H4,allene     2.319-13
 C3H4,propyne    6.432-13
 C3H4,cyclo-     2.446-16
 C3H5,allyl      2.342-15
 C3H6,propylene  3.399-14
 C3O2            7.274-13
 C4H2,butadiyne  5.277-15
 *H              2.7812-5
 HCO             1.5986-8
 HCCO            5.806-13
 *H2             5.2641-1
 HCHO,formaldehy 1.0871-7
 HCOOH           6.630-10
 H2O             2.9321-3
 *O              2.438-13
 *OH             6.4342-9
 *O2             6.240-16

  * THERMODYNAMIC PROPERTIES FITTED TO 20000.K









         THERMODYNAMIC EQUILIBRIUM COMBUSTION PROPERTIES AT ASSIGNED

                                   PRESSURES

 CASE =                

             REACTANT                       MOLES         ENERGY      TEMP
                                                         KJ/KG-MOL      K
 FUEL        C8H18,isooctane              1.0000000   -223660.458    300.000
 OXIDANT     O2                          12.5000000        54.358    300.000

 O/F=    1.09426  %FUEL= 47.749640  R,EQ.RATIO= 3.200000  PHI,EQ.RATIO= 3.200000

 THERMODYNAMIC PROPERTIES

 P, BAR            1.0000
 T, K             1513.81
 RHO, KG/CU M    1.1318-1
 H, KJ/KG         -934.05
 U, KJ/KG        -1817.57
 G, KJ/KG        -24077.2
 S, KJ/(KG)(K)    15.2880

 M, (1/n)          14.246
 MW, MOL WT        14.091
 (dLV/dLP)t      -1.00121
 (dLV/dLT)p        1.0109
 Cp, KJ/(KG)(K)    2.4511
 GAMMAs            1.3195
 SON VEL,M/SEC     1079.7

 MOLE FRACTIONS

 *CH             1.248-15
 CH2             1.120-11
 CH3             4.0027-7
 CH2OH           4.891-13
 CH3O            2.237-14
 CH4             6.8688-4
 CH3OH           5.247-11
 *CO             4.5956-1
 *CO2            1.2578-4
 COOH            1.307-12
 C2H             3.277-13
 C2H2,acetylene  5.6280-6
 C2H2,vinylidene 1.596-11
 CH2CO,ketene    4.5620-8
 O(CH)2O         1.798-15
 C2H3,vinyl      9.032-11
 CH3CO,acetyl    2.906-12
 C2H4            7.5504-7
 C2H4O,ethylen-o 3.095-16
 CH3CHO,ethanal  3.768-11
 CH3COOH         5.359-15
 C2H5            1.988-11
 C2H6            3.1796-9
 C2H5OH          2.136-15
 C2O             3.660-13
 C3H3,1-propynl  2.125-15
 C3H3,2-propynl  9.388-11
 C3H4,allene     1.932-10
 C3H4,propyne    5.460-10
 C3H4,cyclo-     1.616-13
 C3H5,allyl      2.115-12
 C3H6,propylene  4.679-11
 C3H6,cyclo-     8.425-14
 C3H6O,acetone   1.302-15
 C3H6O,propanal  4.163-16
 C3H7,n-propyl   2.495-16
 C3H7,i-propyl   2.574-16
 C3H8            4.207-14
 C3O2            5.308-12
 C4H2,butadiyne  2.281-11
 C4H6,butadiene  2.104-13
 C4H6,1butyne    7.774-15
 C4H6,2butyne    9.625-15
 C4H6,cyclo-     2.251-16
 C4H8,1-butene   5.770-16
 C4H8,cis2-buten 2.837-16
 C4H8,tr2-butene 3.189-16
 C4H8,isobutene  3.873-16
 C5H6,1,3cyclo-  3.649-15
 C6H6            4.754-14
 *H              1.5018-5
 HCO             1.0457-8
 HCCO            2.869-12
 *H2             5.2837-1
 HCHO,formaldehy 1.0932-7
 HCOOH           8.917-11
 H2O             3.8260-4
 *O              7.934-15
 *OH             3.826-10
 C(gr)           1.0853-2

  * THERMODYNAMIC PROPERTIES FITTED TO 20000.K









         THERMODYNAMIC EQUILIBRIUM COMBUSTION PROPERTIES AT ASSIGNED

                                   PRESSURES

 CASE =                

             REACTANT                       MOLES         ENERGY      TEMP
                                                         KJ/KG-MOL      K
 FUEL        C8H18,isooctane              1.0000000   -223660.458    300.000
 OXIDANT     O2                          12.5000000        54.358    300.000

 O/F=    1.06110  %FUEL= 48.517845  R,EQ.RATIO= 3.300000  PHI,EQ.RATIO= 3.300000

 THERMODYNAMIC PROPERTIES

 P, BAR            1.0000
 T, K             1475.39
 RHO, KG/CU M    1.1596-1
 H, KJ/KG         -949.11
 U, KJ/KG        -1811.44
 G, KJ/KG        -23445.3
 S, KJ/(KG)(K)    15.2477

 M, (1/n)          14.226
 MW, MOL WT        13.872
 (dLV/dLP)t      -1.00154
 (dLV/dLT)p        1.0143
 Cp, KJ/(KG)(K)    2.4890
 GAMMAs            1.3159
 SON VEL,M/SEC     1065.2

 MOLE FRACTIONS

 *CH             3.623-16
 CH2             5.064-12
 CH3             3.0432-7
 CH2OH           4.052-13
 CH3O            1.716-14
 CH4             8.3895-4
 CH3OH           6.487-11
 *CO             4.4555-1
 *CO2            1.6879-4
 COOH            1.223-12
 C2H             1.014-13
 C2H2,acetylene  3.5489-6
 C2H2,vinylidene 6.914-12
 CH2CO,ketene    3.9795-8
 O(CH)2O         1.684-15
 C2H3,vinyl      5.034-11
 CH3CO,acetyl    2.361-12
 C2H4            7.1088-7
 C2H4O,ethylen-o 2.797-16
 CH3CHO,ethanal  4.318-11
 CH3COOH         8.122-15
 C2H5            1.653-11
 C2H6            4.0762-9
 C2H5OH          2.884-15
 C2O             1.535-13
 C3H3,1-propynl  8.723-16
 C3H3,2-propynl  4.843-11
 C3H4,allene     1.357-10
 C3H4,propyne    3.889-10
 C3H4,cyclo-     9.514-14
 C3H5,allyl      1.582-12
 C3H6,propylene  4.827-11
 C3H6,cyclo-     8.090-14
 C3H6O,acetone   1.704-15
 C3H6O,propanal  5.044-16
 C3H7,n-propyl   2.200-16
 C3H7,i-propyl   2.327-16
 C3H8            5.747-14
 C3O2            3.806-12
 C4H2,butadiyne  9.035-12
 C4H6,butadiene  1.766-13
 C4H6,1butyne    5.893-15
 C4H6,2butyne    7.667-15
 C4H6,cyclo-     1.744-16
 C4H8,1-butene   6.348-16
 C4H8,cis2-buten 3.193-16
 C4H8,tr2-butene 3.590-16
 C4H8,isobutene  4.411-16
 C5H6,1,3cyclo-  2.951-15
 C6H6            4.300-14
 *H              9.3628-6
 HCO             7.4762-9
 HCCO            1.544-12
 *H2             5.2812-1
 HCHO,formaldehy 1.0854-7
 HCOOH           1.178-10
 H2O             4.9723-4
 *O              3.582-15
 *OH             2.734-10
 C(gr)           2.4816-2

  * THERMODYNAMIC PROPERTIES FITTED TO 20000.K









         THERMODYNAMIC EQUILIBRIUM COMBUSTION PROPERTIES AT ASSIGNED

                                   PRESSURES

 CASE =                

             REACTANT                       MOLES         ENERGY      TEMP
                                                         KJ/KG-MOL      K
 FUEL        C8H18,isooctane              1.0000000   -223660.458    300.000
 OXIDANT     O2                          12.5000000        54.358    300.000

 O/F=    1.02989  %FUEL= 49.263788  R,EQ.RATIO= 3.400000  PHI,EQ.RATIO= 3.400000

 THERMODYNAMIC PROPERTIES

 P, BAR            1.0000
 T, K             1439.08
 RHO, KG/CU M    1.1874-1
 H, KJ/KG         -963.73
 U, KJ/KG        -1805.93
 G, KJ/KG        -22847.6
 S, KJ/(KG)(K)    15.2068

 M, (1/n)          14.207
 MW, MOL WT        13.667
 (dLV/dLP)t      -1.00196
 (dLV/dLT)p        1.0188
 Cp, KJ/(KG)(K)    2.5344
 GAMMAs            1.3119
 SON VEL,M/SEC     1051.1

 MOLE FRACTIONS

 *CH             1.059-16
 CH2             2.300-12
 CH3             2.3158-7
 CH2OH           3.360-13
 CH3O            1.319-14
 CH4             1.0228-3
 CH3OH           8.007-11
 *CO             4.3231-1
 *CO2            2.2648-4
 COOH            1.145-12
 C2H             3.159-14
 C2H2,acetylene  2.2432-6
 C2H2,vinylidene 3.008-12
 CH2CO,ketene    3.4750-8
 O(CH)2O         1.580-15
 C2H3,vinyl      2.813-11
 CH3CO,acetyl    1.921-12
 C2H4            6.6889-7
 C2H4O,ethylen-o 2.530-16
 CH3CHO,ethanal  4.943-11
 CH3COOH         1.229-14
 C2H5            1.375-11
 C2H6            5.2106-9
 C2H5OH          3.885-15
 C2O             6.479-14
 C3H3,1-propynl  3.596-16
 C3H3,2-propynl  2.506-11
 C3H4,allene     9.537-11
 C3H4,propyne    2.773-10
 C3H4,cyclo-     5.615-14
 C3H5,allyl      1.184-12
 C3H6,propylene  4.971-11
 C3H6,cyclo-     7.761-14
 C3H6O,acetone   2.224-15
 C3H6O,propanal  6.102-16
 C3H7,n-propyl   1.939-16
 C3H7,i-propyl   2.101-16
 C3H8            7.823-14
 C3O2            2.739-12
 C4H2,butadiyne  3.596-12
 C4H6,butadiene  1.482-13
 C4H6,1butyne    4.468-15
 C4H6,2butyne    6.106-15
 C4H6,cyclo-     1.352-16
 C4H8,1-butene   6.967-16
 C4H8,cis2-buten 3.583-16
 C4H8,tr2-butene 4.032-16
 C4H8,isobutene  5.011-16
 C5H6,1,3cyclo-  2.387-15
 C6H6            3.887-14
 *H              5.8574-6
 HCO             5.3581-9
 HCCO            8.339-13
 *H2             5.2780-1
 HCHO,formaldehy 1.0779-7
 HCOOH           1.555-10
 H2O             6.4532-4
 *O              1.628-15
 *OH             1.958-10
 C(gr)           3.7983-2

  * THERMODYNAMIC PROPERTIES FITTED TO 20000.K









         THERMODYNAMIC EQUILIBRIUM COMBUSTION PROPERTIES AT ASSIGNED

                                   PRESSURES

 CASE =                

             REACTANT                       MOLES         ENERGY      TEMP
                                                         KJ/KG-MOL      K
 FUEL        C8H18,isooctane              1.0000000   -223660.458    300.000
 OXIDANT     O2                          12.5000000        54.358    300.000

 O/F=    1.00046  %FUEL= 49.988423  R,EQ.RATIO= 3.500000  PHI,EQ.RATIO= 3.500000

 THERMODYNAMIC PROPERTIES

 P, BAR            1.0000
 T, K             1404.86
 RHO, KG/CU M    1.2149-1
 H, KJ/KG         -977.93
 U, KJ/KG        -1801.04
 G, KJ/KG        -22283.3
 S, KJ/(KG)(K)    15.1655

 M, (1/n)          14.191
 MW, MOL WT        13.475
 (dLV/dLP)t      -1.00249
 (dLV/dLT)p        1.0247
 Cp, KJ/(KG)(K)    2.5899
 GAMMAs            1.3073
 SON VEL,M/SEC     1037.3

 MOLE FRACTIONS

 CH2             1.053-12
 CH3             1.7656-7
 CH2OH           2.790-13
 CH3O            1.016-14
 CH4             1.2437-3
 CH3OH           9.859-11
 *CO             4.1977-1
 *CO2            3.0337-4
 COOH            1.075-12
 C2H             9.954-15
 C2H2,acetylene  1.4237-6
 C2H2,vinylidene 1.318-12
 CH2CO,ketene    3.0385-8
 O(CH)2O         1.485-15
 C2H3,vinyl      1.580-11
 CH3CO,acetyl    1.566-12
 C2H4            6.2916-7
 C2H4O,ethylen-o 2.290-16
 CH3CHO,ethanal  5.649-11
 CH3COOH         1.854-14
 C2H5            1.145-11
 C2H6            6.6359-9
 C2H5OH          5.214-15
 C2O             2.759-14
 C3H3,1-propynl  1.494-16
 C3H3,2-propynl  1.304-11
 C3H4,allene     6.722-11
 C3H4,propyne    1.982-10
 C3H4,cyclo-     3.328-14
 C3H5,allyl      8.884-13
 C3H6,propylene  5.111-11
 C3H6,cyclo-     7.441-14
 C3H6O,acetone   2.894-15
 C3H6O,propanal  7.363-16
 C3H7,n-propyl   1.708-16
 C3H7,i-propyl   1.896-16
 C3H8            1.060-13
 C3O2            1.979-12
 C4H2,butadiyne  1.443-12
 C4H6,butadiene  1.244-13
 C4H6,1butyne    3.392-15
 C4H6,2butyne    4.867-15
 C4H6,cyclo-     1.050-16
 C4H8,1-butene   7.626-16
 C4H8,cis2-buten 4.010-16
 C4H8,tr2-butene 4.515-16
 C4H8,isobutene  5.674-16
 C5H6,1,3cyclo-  1.933-15
 C6H6            3.512-14
 *H              3.6832-6
 HCO             3.8536-9
 HCCO            4.534-13
 *H2             5.2740-1
 HCHO,formaldehy 1.0706-7
 HCOOH           2.050-10
 H2O             8.3542-4
 *O              7.460-16
 *OH             1.408-10
 C(gr)           5.0437-2

  * THERMODYNAMIC PROPERTIES FITTED TO 20000.K









         THERMODYNAMIC EQUILIBRIUM COMBUSTION PROPERTIES AT ASSIGNED

                                   PRESSURES

 CASE =                

             REACTANT                       MOLES         ENERGY      TEMP
                                                         KJ/KG-MOL      K
 FUEL        C8H18,isooctane              1.0000000   -223660.458    300.000
 OXIDANT     O2                          12.5000000        54.358    300.000

 O/F=    0.97267  %FUEL= 50.692651  R,EQ.RATIO= 3.600000  PHI,EQ.RATIO= 3.600000

 THERMODYNAMIC PROPERTIES

 P, BAR            1.0000
 T, K             1372.69
 RHO, KG/CU M    1.2422-1
 H, KJ/KG         -991.73
 U, KJ/KG        -1796.75
 G, KJ/KG        -21752.0
 S, KJ/(KG)(K)    15.1238

 M, (1/n)          14.178
 MW, MOL WT        13.295
 (dLV/dLP)t      -1.00316
 (dLV/dLT)p        1.0324
 Cp, KJ/(KG)(K)    2.6586
 GAMMAs            1.3020
 SON VEL,M/SEC     1023.8

 MOLE FRACTIONS

 CH2             4.869-13
 CH3             1.3505-7
 CH2OH           2.323-13
 CH3O            7.865-15
 CH4             1.5070-3
 CH3OH           1.210-10
 *CO             4.0784-1
 *CO2            4.0498-4
 COOH            1.010-12
 C2H             3.189-15
 C2H2,acetylene  9.0912-7
 C2H2,vinylidene 5.842-13
 CH2CO,ketene    2.6617-8
 O(CH)2O         1.397-15
 C2H3,vinyl      8.939-12
 CH3CO,acetyl    1.281-12
 C2H4            5.9178-7
 C2H4O,ethylen-o 2.075-16
 CH3CHO,ethanal  6.440-11
 CH3COOH         2.782-14
 C2H5            9.540-12
 C2H6            8.4111-9
 C2H5OH          6.962-15
 C2O             1.190-14
 C3H3,2-propynl  6.847-12
 C3H4,allene     4.758-11
 C3H4,propyne    1.422-10
 C3H4,cyclo-     1.986-14
 C3H5,allyl      6.686-13
 C3H6,propylene  5.247-11
 C3H6,cyclo-     7.131-14
 C3H6O,acetone   3.747-15
 C3H6O,propanal  8.854-16
 C3H7,n-propyl   1.505-16
 C3H7,i-propyl   1.711-16
 C3H8            1.428-13
 C3O2            1.438-12
 C4H2,butadiyne  5.868-13
 C4H6,butadiene  1.047-13
 C4H6,1butyne    2.583-15
 C4H6,2butyne    3.887-15
 C4H8,1-butene   8.324-16
 C4H8,cis2-buten 4.473-16
 C4H8,tr2-butene 5.040-16
 C4H8,isobutene  6.405-16
 C5H6,1,3cyclo-  1.568-15
 C6H6            3.175-14
 *H              2.3327-6
 HCO             2.7849-9
 HCCO            2.487-13
 *H2             5.2691-1
 HCHO,formaldehy 1.0633-7
 HCOOH           2.695-10
 H2O             1.0773-3
 *O              3.461-16
 *OH             1.018-10
 C(gr)           6.2251-2

  * THERMODYNAMIC PROPERTIES FITTED TO 20000.K



