
 *******************************************************************************

         NASA-GLENN CHEMICAL EQUILIBRIUM PROGRAM CEA2, MAY 21, 2004
                   BY  BONNIE MCBRIDE AND SANFORD GORDON
      REFS: NASA RP-1311, PART I, 1994 AND NASA RP-1311, PART II, 1996

 *******************************************************************************



 problem    phi,eq.ratio=2.1,2.2,2.3,2.4,2.5,2.6,2.7,2.8,2.9,3,3.1,3.2,3.3,3.4,3.
 5,3.6,
       hp   p,bar=1,  t,k=3800
 react
   fuel=CH4 moles=1 t,k=300
   oxid=O2 moles=2 t,k=300
   oxid=N2 moles=7.5238 t,k=300
 output
      trace=1e-16 siunits short
 end




         THERMODYNAMIC EQUILIBRIUM COMBUSTION PROPERTIES AT ASSIGNED

                                   PRESSURES

 CASE =                

             REACTANT                       MOLES         ENERGY      TEMP
                                                         KJ/KG-MOL      K
 FUEL        CH4                          1.0000000    -74533.907    300.000
 OXIDANT     O2                           2.0000000        54.358    300.000
 OXIDANT     N2                           7.5238000        53.881    300.000

 O/F=    8.15588  %FUEL= 10.921942  R,EQ.RATIO= 2.100000  PHI,EQ.RATIO= 2.100000

 THERMODYNAMIC PROPERTIES

 P, BAR            1.0000
 T, K             1502.73
 RHO, KG/CU M    1.7858-1
 H, KJ/KG         -505.77
 U, KJ/KG        -1065.73
 G, KJ/KG        -16890.5
 S, KJ/(KG)(K)    10.9033

 M, (1/n)          22.313
 (dLV/dLP)t      -1.00001
 (dLV/dLT)p        1.0001
 Cp, KJ/(KG)(K)    1.6703
 GAMMAs            1.2872
 SON VEL,M/SEC      849.0

 MOLE FRACTIONS

 CH2             1.211-15
 CH3             3.015-11
 CH2OH           2.753-14
 CH3O            1.232-15
 CH4             3.5552-8
 CH3OH           1.988-12
 *CN             3.009-14
 *CO             1.2463-1
 *CO2            2.7277-2
 COOH            1.538-10
 C2H2,acetylene  2.472-13
 CH2CO,ketene    1.602-12
 CH3CN           6.469-15
 C2H4            1.342-14
 CH3CHO,ethanal  5.163-16
 C2N2            2.689-16
 C3O2            1.316-16
 *H              8.0134-6
 HCN             1.5105-7
 HCO             1.5635-9
 HCCO            1.463-16
 HNC             2.1986-9
 HNCO            2.5366-8
 HNO             3.248-13
 HNO2            2.082-16
 HO2             8.265-16
 *H2             1.9365-1
 HCHO,formaldehy 1.0778-8
 HCOOH           6.9512-9
 H2O             1.1017-1
 H2O2            2.615-14
 *N              4.805-14
 NCO             2.699-13
 *NH             1.399-12
 NH2             4.290-10
 NH3             3.8825-6
 NH2OH           5.988-15
 *NO             2.5067-9
 *N2             5.4426-1
 N2H2            4.797-15
 N2O             1.280-13
 *O              4.690-12
 *OH             1.5478-7
 *O2             1.242-12

  * THERMODYNAMIC PROPERTIES FITTED TO 20000.K









         THERMODYNAMIC EQUILIBRIUM COMBUSTION PROPERTIES AT ASSIGNED

                                   PRESSURES

 CASE =                

             REACTANT                       MOLES         ENERGY      TEMP
                                                         KJ/KG-MOL      K
 FUEL        CH4                          1.0000000    -74533.907    300.000
 OXIDANT     O2                           2.0000000        54.358    300.000
 OXIDANT     N2                           7.5238000        53.881    300.000

 O/F=    7.78516  %FUEL= 11.382833  R,EQ.RATIO= 2.200000  PHI,EQ.RATIO= 2.200000

 THERMODYNAMIC PROPERTIES

 P, BAR            1.0000
 T, K             1442.64
 RHO, KG/CU M    1.8302-1
 H, KJ/KG         -527.19
 U, KJ/KG        -1073.58
 G, KJ/KG        -16345.3
 S, KJ/(KG)(K)    10.9647

 M, (1/n)          21.953
 (dLV/dLP)t      -1.00001
 (dLV/dLT)p        1.0001
 Cp, KJ/(KG)(K)    1.6815
 GAMMAs            1.2908
 SON VEL,M/SEC      839.8

 MOLE FRACTIONS

 CH2             7.081-16
 CH3             4.196-11
 CH2OH           2.432-14
 CH3O            9.617-16
 CH4             1.0955-7
 CH3OH           3.451-12
 *CN             1.345-14
 *CO             1.2934-1
 *CO2            2.6427-2
 COOH            8.587-11
 C2H2,acetylene  4.764-13
 CH2CO,ketene    2.879-12
 CH3CN           2.251-14
 C2H4            5.244-14
 CH3CHO,ethanal  1.531-15
 CH3COOH         1.492-16
 C2H6            1.522-16
 C2N2            3.458-16
 C3O2            1.730-16
 *H              3.9503-6
 HCN             1.9487-7
 HCO             1.0243-9
 HCCO            1.170-16
 HNC             2.3022-9
 HNCO            2.7804-8
 HNO             8.833-14
 HO2             1.127-16
 *H2             2.1050-1
 HCHO,formaldehy 1.2360-8
 HCOOH           6.9823-9
 H2O             1.0102-1
 H2O2            6.123-15
 *N              9.648-15
 NCO             1.213-13
 *NH             4.392-13
 NH2             2.500-10
 NH3             5.2516-6
 NH2OH           2.952-15
 *NO             6.698-10
 *N2             5.3270-1
 N2H2            2.561-15
 N2O             3.449-14
 *O              7.368-13
 *OH             5.2497-8
 *O2             1.668-13

  * THERMODYNAMIC PROPERTIES FITTED TO 20000.K









         THERMODYNAMIC EQUILIBRIUM COMBUSTION PROPERTIES AT ASSIGNED

                                   PRESSURES

 CASE =                

             REACTANT                       MOLES         ENERGY      TEMP
                                                         KJ/KG-MOL      K
 FUEL        CH4                          1.0000000    -74533.907    300.000
 OXIDANT     O2                           2.0000000        54.358    300.000
 OXIDANT     N2                           7.5238000        53.881    300.000

 O/F=    7.44667  %FUEL= 11.838980  R,EQ.RATIO= 2.300000  PHI,EQ.RATIO= 2.300000

 THERMODYNAMIC PROPERTIES

 P, BAR            1.0000
 T, K             1384.23
 RHO, KG/CU M    1.8774-1
 H, KJ/KG         -548.39
 U, KJ/KG        -1081.04
 G, KJ/KG        -15805.0
 S, KJ/(KG)(K)    11.0217

 M, (1/n)          21.608
 (dLV/dLP)t      -1.00001
 (dLV/dLT)p        1.0001
 Cp, KJ/(KG)(K)    1.6928
 GAMMAs            1.2942
 SON VEL,M/SEC      830.3

 MOLE FRACTIONS

 CH2             3.890-16
 CH3             5.720-11
 CH2OH           2.079-14
 CH3O            7.229-16
 CH4             3.4370-7
 CH3OH           5.984-12
 *CN             5.646-15
 *CO             1.3369-1
 *CO2            2.5769-2
 COOH            4.648-11
 C2H2,acetylene  9.056-13
 CH2CO,ketene    5.150-12
 CH3CN           7.945-14
 CH3CO,acetyl    1.617-16
 C2H4            2.075-13
 CH3CHO,ethanal  4.589-15
 CH3COOH         3.909-16
 C2H6            1.073-15
 C2N2            4.357-16
 C3O2            2.245-16
 *H              1.8617-6
 HCN             2.4890-7
 HCO             6.473-10
 HNC             2.3589-9
 HNCO            3.0300-8
 HNO             2.253-14
 *H2             2.2681-1
 HCHO,formaldehy 1.4016-8
 HCOOH           6.9904-9
 H2O             9.2094-2
 H2O2            1.340-15
 *N              1.775-15
 NCO             5.199-14
 *NH             1.285-13
 NH2             1.396-10
 NH3             7.0844-6
 NH2OH           1.393-15
 *NO             1.687-10
 *N2             5.2162-1
 N2H2            1.307-15
 N2O             8.787-15
 *O              1.059-13
 *OH             1.6873-8
 *O2             2.058-14

  * THERMODYNAMIC PROPERTIES FITTED TO 20000.K









         THERMODYNAMIC EQUILIBRIUM COMBUSTION PROPERTIES AT ASSIGNED

                                   PRESSURES

 CASE =                

             REACTANT                       MOLES         ENERGY      TEMP
                                                         KJ/KG-MOL      K
 FUEL        CH4                          1.0000000    -74533.907    300.000
 OXIDANT     O2                           2.0000000        54.358    300.000
 OXIDANT     N2                           7.5238000        53.881    300.000

 O/F=    7.13640  %FUEL= 12.290454  R,EQ.RATIO= 2.400000  PHI,EQ.RATIO= 2.400000

 THERMODYNAMIC PROPERTIES

 P, BAR            1.0000
 T, K             1327.39
 RHO, KG/CU M    1.9278-1
 H, KJ/KG         -569.38
 U, KJ/KG        -1088.10
 G, KJ/KG        -15269.6
 S, KJ/(KG)(K)    11.0745

 M, (1/n)          21.276
 (dLV/dLP)t      -1.00001
 (dLV/dLT)p        1.0001
 Cp, KJ/(KG)(K)    1.7043
 GAMMAs            1.2976
 SON VEL,M/SEC      820.4

 MOLE FRACTIONS

 CH2             2.008-16
 CH3             7.677-11
 CH2OH           1.722-14
 CH3O            5.236-16
 CH4             1.1083-6
 CH3OH           1.042-11
 *CN             2.221-15
 *CO             1.3773-1
 *CO2            2.5267-2
 COOH            2.432-11
 C2H2,acetylene  1.712-12
 CH2CO,ketene    9.232-12
 CH3CN           2.876-13
 CH3CO,acetyl    2.612-16
 C2H4            8.421-13
 CH3CHO,ethanal  1.404-14
 CH3COOH         1.051-15
 C2H6            7.924-15
 C2N2            5.409-16
 C3O2            2.890-16
 *H              8.3631-7
 HCN             3.1588-7
 HCO             3.942-10
 HNC             2.3712-9
 HNCO            3.2878-8
 HNO             5.348-15
 *H2             2.4259-1
 HCHO,formaldehy 1.5751-8
 HCOOH           6.9788-9
 H2O             8.3403-2
 H2O2            2.718-16
 *N              2.969-16
 NCO             2.115-14
 *NH             3.487-14
 NH2             7.458-11
 NH3             9.5596-6
 NH2OH           6.270-16
 *NO             3.974-11
 *N2             5.1100-1
 N2H2            6.365-16
 N2O             2.099-15
 *O              1.378-14
 *OH             5.1071-9
 *O2             2.302-15

  * THERMODYNAMIC PROPERTIES FITTED TO 20000.K









         THERMODYNAMIC EQUILIBRIUM COMBUSTION PROPERTIES AT ASSIGNED

                                   PRESSURES

 CASE =                

             REACTANT                       MOLES         ENERGY      TEMP
                                                         KJ/KG-MOL      K
 FUEL        CH4                          1.0000000    -74533.907    300.000
 OXIDANT     O2                           2.0000000        54.358    300.000
 OXIDANT     N2                           7.5238000        53.881    300.000

 O/F=    6.85094  %FUEL= 12.737329  R,EQ.RATIO= 2.500000  PHI,EQ.RATIO= 2.500000

 THERMODYNAMIC PROPERTIES

 P, BAR            1.0000
 T, K             1272.07
 RHO, KG/CU M    1.9816-1
 H, KJ/KG         -590.15
 U, KJ/KG        -1094.79
 G, KJ/KG        -14739.2
 S, KJ/(KG)(K)    11.1229

 M, (1/n)          20.959
 (dLV/dLP)t      -1.00003
 (dLV/dLT)p        1.0002
 Cp, KJ/(KG)(K)    1.7164
 GAMMAs            1.3007
 SON VEL,M/SEC      810.2

 MOLE FRACTIONS

 CH3             1.018-10
 CH2OH           1.384-14
 CH3O            3.655-16
 CH4             3.7056-6
 CH3OH           1.829-11
 *CN             8.161-16
 *CO             1.4151-1
 *CO2            2.4893-2
 COOH            1.225-11
 C2H2,acetylene  3.241-12
 CH2CO,ketene    1.668-11
 CH3CN           1.080-12
 CH3CO,acetyl    4.207-16
 C2H4            3.545-12
 CH3CHO,ethanal  4.425-14
 CH3COOH         2.925-15
 C2H6            6.231-14
 C2N2            6.646-16
 C3O2            3.705-16
 *H              3.5686-7
 HCN             3.9963-7
 HCO             2.309-10
 HNC             2.3434-9
 HNCO            3.5569-8
 HNO             1.172-15
 *H2             2.5783-1
 HCHO,formaldehy 1.7572-8
 HCOOH           6.9482-9
 H2O             7.4955-2
 NCO             8.142-15
 *NH             8.720-15
 NH2             3.801-11
 NH3             1.2937-5
 NH2OH           2.682-16
 *NO             8.681-12
 *N2             5.0080-1
 N2H2            2.950-16
 N2O             4.663-16
 *O              1.605-15
 *OH             1.4457-9
 *O2             2.305-16

  * THERMODYNAMIC PROPERTIES FITTED TO 20000.K









         THERMODYNAMIC EQUILIBRIUM COMBUSTION PROPERTIES AT ASSIGNED

                                   PRESSURES

 CASE =                

             REACTANT                       MOLES         ENERGY      TEMP
                                                         KJ/KG-MOL      K
 FUEL        CH4                          1.0000000    -74533.907    300.000
 OXIDANT     O2                           2.0000000        54.358    300.000
 OXIDANT     N2                           7.5238000        53.881    300.000

 O/F=    6.58744  %FUEL= 13.179672  R,EQ.RATIO= 2.600000  PHI,EQ.RATIO= 2.600000

 THERMODYNAMIC PROPERTIES

 P, BAR            1.0000
 T, K             1218.21
 RHO, KG/CU M    2.0391-1
 H, KJ/KG         -610.71
 U, KJ/KG        -1101.13
 G, KJ/KG        -14214.4
 S, KJ/(KG)(K)    11.1669

 M, (1/n)          20.653
 (dLV/dLP)t      -1.00007
 (dLV/dLT)p        1.0007
 Cp, KJ/(KG)(K)    1.7303
 GAMMAs            1.3036
 SON VEL,M/SEC      799.6

 MOLE FRACTIONS

 CH3             1.340-10
 CH2OH           1.078-14
 CH3O            2.457-16
 CH4             1.2954-5
 CH3OH           3.251-11
 *CN             2.792-16
 *CO             1.4505-1
 *CO2            2.4618-2
 COOH            5.924-12
 C2H2,acetylene  6.187-12
 CH2CO,ketene    3.054-11
 CH3CN           4.246-12
 CH3CO,acetyl    6.790-16
 C2H4            1.565-11
 CH3CHO,ethanal  1.449-13
 CH3COOH         8.471-15
 C2H6            5.291-13
 C2N2            8.114-16
 C3O2            4.745-16
 *H              1.4410-7
 HCN             5.0548-7
 HCO             1.299-10
 HNC             2.2809-9
 HNCO            3.8403-8
 HNO             2.353-16
 *H2             2.7254-1
 HCHO,formaldehy 1.9485-8
 HCOOH           6.8978-9
 H2O             6.6761-2
 NCO             2.952-15
 *NH             1.997-15
 NH2             1.844-11
 NH3             1.7595-5
 NH2OH           1.085-16
 *NO             1.744-12
 *N2             4.9100-1
 N2H2            1.296-16
 *O              1.654-16
 *OH             3.801-10

  * THERMODYNAMIC PROPERTIES FITTED TO 20000.K









         THERMODYNAMIC EQUILIBRIUM COMBUSTION PROPERTIES AT ASSIGNED

                                   PRESSURES

 CASE =                

             REACTANT                       MOLES         ENERGY      TEMP
                                                         KJ/KG-MOL      K
 FUEL        CH4                          1.0000000    -74533.907    300.000
 OXIDANT     O2                           2.0000000        54.358    300.000
 OXIDANT     N2                           7.5238000        53.881    300.000

 O/F=    6.34346  %FUEL= 13.617554  R,EQ.RATIO= 2.700000  PHI,EQ.RATIO= 2.700000

 THERMODYNAMIC PROPERTIES

 P, BAR            1.0000
 T, K             1165.87
 RHO, KG/CU M    2.1005-1
 H, KJ/KG         -631.06
 U, KJ/KG        -1107.15
 G, KJ/KG        -13696.4
 S, KJ/(KG)(K)    11.2066

 M, (1/n)          20.361
 (dLV/dLP)t      -1.00021
 (dLV/dLT)p        1.0025
 Cp, KJ/(KG)(K)    1.7509
 GAMMAs            1.3058
 SON VEL,M/SEC      788.4

 MOLE FRACTIONS

 CH3             1.755-10
 CH2OH           8.149-15
 CH3O            1.590-16
 CH4             4.7629-5
 CH3OH           5.867-11
 *CO             1.4837-1
 *CO2            2.4415-2
 COOH            2.739-12
 C2H2,acetylene  1.197-11
 CH2CO,ketene    5.686-11
 CH3CN           1.763-11
 CH3CO,acetyl    1.103-15
 C2H4            7.303-11
 CH3CHO,ethanal  4.958-13
 CH3COOH         2.567-14
 C2H5            3.154-16
 C2H6            4.903-12
 C2N2            9.885-16
 C3H6,propylene  1.669-16
 C3O2            6.091-16
 *H              5.4924-8
 HCN             6.4081-7
 HCO             7.000-11
 HNC             2.1900-9
 HNCO            4.1411-8
 *H2             2.8669-1
 HCHO,formaldehy 2.1494-8
 HCOOH           6.8244-9
 H2O             5.8849-2
 NCO             1.005-15
 *NH             4.170-16
 NH2             8.494-12
 NH3             2.4086-5
 *NO             3.200-13
 *N2             4.8161-1
 *OH             9.231-11

  * THERMODYNAMIC PROPERTIES FITTED TO 20000.K









         THERMODYNAMIC EQUILIBRIUM COMBUSTION PROPERTIES AT ASSIGNED

                                   PRESSURES

 CASE =                

             REACTANT                       MOLES         ENERGY      TEMP
                                                         KJ/KG-MOL      K
 FUEL        CH4                          1.0000000    -74533.907    300.000
 OXIDANT     O2                           2.0000000        54.358    300.000
 OXIDANT     N2                           7.5238000        53.881    300.000

 O/F=    6.11691  %FUEL= 14.051041  R,EQ.RATIO= 2.800000  PHI,EQ.RATIO= 2.800000

 THERMODYNAMIC PROPERTIES

 P, BAR            1.0000
 T, K             1115.47
 RHO, KG/CU M    2.1655-1
 H, KJ/KG         -651.21
 U, KJ/KG        -1113.00
 G, KJ/KG        -13191.0
 S, KJ/(KG)(K)    11.2418

 M, (1/n)          20.084
 (dLV/dLP)t      -1.00076
 (dLV/dLT)p        1.0095
 Cp, KJ/(KG)(K)    1.8003
 GAMMAs            1.3047
 SON VEL,M/SEC      776.2

 MOLE FRACTIONS

 CH3             2.286-10
 CH2OH           5.983-15
 CH4             1.8318-4
 CH3OH           1.072-10
 *CO             1.5146-1
 *CO2            2.4259-2
 COOH            1.215-12
 C2H2,acetylene  2.347-11
 CH2CO,ketene    1.075-10
 CH3CN           7.694-11
 CH3CO,acetyl    1.800-15
 C2H4            3.586-10
 CH3CHO,ethanal  1.765-12
 CH3COOH         8.095-14
 C2H5            1.180-15
 C2H6            4.915-11
 C2H5OH          4.490-16
 C2N2            1.204-15
 C3H4,allene     1.064-16
 C3H4,propyne    3.637-16
 C3H6,propylene  2.365-15
 C3O2            7.842-16
 *H              1.9872-8
 HCN             8.1447-7
 HCO             3.630-11
 HNC             2.0783-9
 HNCO            4.4594-8
 *H2             3.0008-1
 HCHO,formaldehy 2.3583-8
 HCOOH           6.7238-9
 H2O             5.1314-2
 NCO             3.237-16
 NH2             3.733-12
 NH3             3.3133-5
 *NO             5.411-14
 *N2             4.7266-1
 *OH             2.085-11

  * THERMODYNAMIC PROPERTIES FITTED TO 20000.K









         THERMODYNAMIC EQUILIBRIUM COMBUSTION PROPERTIES AT ASSIGNED

                                   PRESSURES

 CASE =                

             REACTANT                       MOLES         ENERGY      TEMP
                                                         KJ/KG-MOL      K
 FUEL        CH4                          1.0000000    -74533.907    300.000
 OXIDANT     O2                           2.0000000        54.358    300.000
 OXIDANT     N2                           7.5238000        53.881    300.000

 O/F=    5.90598  %FUEL= 14.480199  R,EQ.RATIO= 2.900000  PHI,EQ.RATIO= 2.900000

 THERMODYNAMIC PROPERTIES

 P, BAR            1.0000
 T, K             1068.85
 RHO, KG/CU M    2.2316-1
 H, KJ/KG         -671.16
 U, KJ/KG        -1119.27
 G, KJ/KG        -12719.8
 S, KJ/(KG)(K)    11.2725

 M, (1/n)          19.832
 (dLV/dLP)t      -1.00276
 (dLV/dLT)p        1.0365
 Cp, KJ/(KG)(K)    1.9661
 GAMMAs            1.2925
 SON VEL,M/SEC      761.1

 MOLE FRACTIONS

 CH3             2.936-10
 CH2OH           4.323-15
 CH4             6.9902-4
 CH3OH           1.935-10
 *CO             1.5418-1
 *CO2            2.4129-2
 COOH            5.337-13
 C2H2,acetylene  4.548-11
 CH2CO,ketene    2.016-10
 CH3CN           3.333-10
 CH3CO,acetyl    2.901-15
 C2H4            1.7416-9
 CH3CHO,ethanal  6.218-12
 CH3COOH         2.538-13
 C2H5            4.343-15
 C2H6            4.871-10
 C2H5OH          2.326-15
 C2N2            1.456-15
 C3H4,allene     6.148-16
 C3H4,propyne    2.166-15
 C3H6,propylene  3.308-14
 C3H6O,acetone   1.267-16
 C3H8            1.278-15
 C3O2            1.003-15
 *H              7.1088-9
 HCN             1.0288-6
 HCO             1.860-11
 HNC             1.9551-9
 HNCO            4.7811-8
 *H2             3.1208-1
 HCHO,formaldehy 2.5641-8
 HCOOH           6.5956-9
 H2O             4.4471-2
 NCO             1.031-16
 NH2             1.618-12
 NH3             4.5229-5
 *NO             9.041-15
 *N2             4.6440-1
 *OH             4.644-12

  * THERMODYNAMIC PROPERTIES FITTED TO 20000.K









         THERMODYNAMIC EQUILIBRIUM COMBUSTION PROPERTIES AT ASSIGNED

                                   PRESSURES

 CASE =                

             REACTANT                       MOLES         ENERGY      TEMP
                                                         KJ/KG-MOL      K
 FUEL        CH4                          1.0000000    -74533.907    300.000
 OXIDANT     O2                           2.0000000        54.358    300.000
 OXIDANT     N2                           7.5238000        53.881    300.000

 O/F=    5.70912  %FUEL= 14.905092  R,EQ.RATIO= 3.000000  PHI,EQ.RATIO= 3.000000

 THERMODYNAMIC PROPERTIES

 P, BAR            1.0000
 T, K             1030.50
 RHO, KG/CU M    2.2911-1
 H, KJ/KG         -690.90
 U, KJ/KG        -1127.37
 G, KJ/KG        -12334.7
 S, KJ/(KG)(K)    11.2992

 M, (1/n)          19.630
 (dLV/dLP)t      -1.00825
 (dLV/dLT)p        1.1141
 Cp, KJ/(KG)(K)    2.4450
 GAMMAs            1.2607
 SON VEL,M/SEC      741.8

 MOLE FRACTIONS

 CH3             3.607-10
 CH2OH           3.194-15
 CH4             2.2582-3
 CH3OH           3.222-10
 *CO             1.5609-1
 *CO2            2.4039-2
 COOH            2.560-13
 C2H2,acetylene  8.036-11
 CH2CO,ketene    3.471-10
 CH3CN           1.2024-9
 CH3CO,acetyl    4.354-15
 C2H4            6.9277-9
 CH3CHO,ethanal  1.866-11
 CH3COOH         6.903-13
 C2H5            1.345-14
 C2H6            3.6338-9
 C2H5OH          9.781-15
 C2N2            1.705-15
 C3H4,allene     2.836-15
 C3H4,propyne    1.027-14
 C3H6,propylene  3.332-13
 C3H6,cyclo-     1.701-16
 C3H6O,acetone   1.045-15
 C3H8            2.287-14
 C3O2            1.234-15
 *H              2.8401-9
 HCN             1.2546-6
 HCO             1.018-11
 HNC             1.8338-9
 HNCO            5.0577-8
 *H2             3.2115-1
 HCHO,formaldehy 2.7355-8
 HCOOH           6.4570-9
 H2O             3.9016-2
 NH2             7.632-13
 NH3             5.9085-5
 *NO             1.845-15
 *N2             4.5738-1
 *OH             1.220-12

  * THERMODYNAMIC PROPERTIES FITTED TO 20000.K









         THERMODYNAMIC EQUILIBRIUM COMBUSTION PROPERTIES AT ASSIGNED

                                   PRESSURES

 CASE =                

             REACTANT                       MOLES         ENERGY      TEMP
                                                         KJ/KG-MOL      K
 FUEL        CH4                          1.0000000    -74533.907    300.000
 OXIDANT     O2                           2.0000000        54.358    300.000
 OXIDANT     N2                           7.5238000        53.881    300.000

 O/F=    5.52495  %FUEL= 15.325785  R,EQ.RATIO= 3.100000  PHI,EQ.RATIO= 3.100000

 THERMODYNAMIC PROPERTIES

 P, BAR            1.0000
 T, K             1003.54
 RHO, KG/CU M    2.3364-1
 H, KJ/KG         -710.46
 U, KJ/KG        -1138.47
 G, KJ/KG        -12073.1
 S, KJ/(KG)(K)    11.3226

 M, (1/n)          19.495
 (dLV/dLP)t      -1.01716
 (dLV/dLT)p        1.2448
 Cp, KJ/(KG)(K)    3.2784
 GAMMAs            1.2261
 SON VEL,M/SEC      724.4

 MOLE FRACTIONS

 CH3             4.132-10
 CH2OH           2.516-15
 CH4             5.3222-3
 CH3OH           4.649-10
 *CO             1.5689-1
 *CO2            2.4024-2
 COOH            1.476-13
 C2H2,acetylene  1.201-10
 CH2CO,ketene    5.118-10
 C2H3,vinyl      1.151-16
 CH3CN           3.0569-9
 CH3CO,acetyl    5.777-15
 C2H4            1.8899-8
 CH3CHO,ethanal  4.148-11
 CH3COOH         1.435-12
 C2H5            3.033-14
 C2H6            1.5789-8
 C2H5OH          2.783-14
 C2N2            1.883-15
 C3H4,allene     8.568-15
 C3H4,propyne    3.165-14
 C3H5,allyl      2.292-16
 C3H6,propylene  1.796-12
 C3H6,cyclo-     8.266-16
 C3H6O,acetone   4.878-15
 C3H6O,propanal  3.585-16
 C3H8            1.886-13
 C3O2            1.418-15
 *H              1.4256-9
 HCN             1.4373-6
 HCO             6.444-12
 HNC             1.7261-9
 HNCO            5.2398-8
 *H2             3.2635-1
 HCHO,formaldehy 2.8439-8
 HCOOH           6.3381-9
 H2O             3.5368-2
 NH2             4.322-13
 NH3             7.1540-5
 *NO             5.645-16
 *N2             4.5197-1
 *OH             4.496-13

  * THERMODYNAMIC PROPERTIES FITTED TO 20000.K









         THERMODYNAMIC EQUILIBRIUM COMBUSTION PROPERTIES AT ASSIGNED

                                   PRESSURES

 CASE =                

             REACTANT                       MOLES         ENERGY      TEMP
                                                         KJ/KG-MOL      K
 FUEL        CH4                          1.0000000    -74533.907    300.000
 OXIDANT     O2                           2.0000000        54.358    300.000
 OXIDANT     N2                           7.5238000        53.881    300.000

 O/F=    5.35230  %FUEL= 15.742338  R,EQ.RATIO= 3.200000  PHI,EQ.RATIO= 3.200000

 THERMODYNAMIC PROPERTIES

 P, BAR            1.0000
 T, K              985.41
 RHO, KG/CU M    2.3689-1
 H, KJ/KG         -729.82
 U, KJ/KG        -1151.96
 G, KJ/KG        -11908.0
 S, KJ/(KG)(K)    11.3437

 M, (1/n)          19.409
 (dLV/dLP)t      -1.02648
 (dLV/dLT)p        1.3856
 Cp, KJ/(KG)(K)    4.2071
 GAMMAs            1.2034
 SON VEL,M/SEC      712.7

 MOLE FRACTIONS

 CH3             4.469-10
 CH2OH           2.105-15
 CH4             9.5384-3
 CH3OH           5.939-10
 *CO             1.5683-1
 *CO2            2.4081-2
 COOH            1.003-13
 C2H2,acetylene  1.553-10
 CH2CO,ketene    6.600-10
 C2H3,vinyl      1.296-16
 CH3CN           5.7297-9
 CH3CO,acetyl    6.903-15
 C2H4            3.7157-8
 CH3CHO,ethanal  7.107-11
 CH3COOH         2.363-12
 C2H5            5.205-14
 C2H6            4.2868-8
 C2H5OH          5.650-14
 C2N2            1.975-15
 C3H4,allene     1.791-14
 C3H4,propyne    6.711-14
 C3H5,allyl      5.124-16
 C3H6,propylene  5.617-12
 C3H6,cyclo-     2.403-15
 C3H6O,acetone   1.388-14
 C3H6O,propanal  9.430-16
 C3H8            7.917-13
 C3O2            1.536-15
 C4H6,butadiene  3.013-16
 C4H8,isobutene  1.332-16
 C6H6            1.877-16
 *H              8.765-10
 HCN             1.5611-6
 HCO             4.642-12
 HNC             1.6329-9
 HNCO            5.3371-8
 *H2             3.2864-1
 HCHO,formaldehy 2.8984-8
 HCOOH           6.2477-9
 H2O             3.3073-2
 NH2             2.884-13
 NH3             8.1246-5
 *NO             2.470-16
 *N2             4.4775-1
 *OH             2.238-13

  * THERMODYNAMIC PROPERTIES FITTED TO 20000.K









         THERMODYNAMIC EQUILIBRIUM COMBUSTION PROPERTIES AT ASSIGNED

                                   PRESSURES

 CASE =                

             REACTANT                       MOLES         ENERGY      TEMP
                                                         KJ/KG-MOL      K
 FUEL        CH4                          1.0000000    -74533.907    300.000
 OXIDANT     O2                           2.0000000        54.358    300.000
 OXIDANT     N2                           7.5238000        53.881    300.000

 O/F=    5.19011  %FUEL= 16.154812  R,EQ.RATIO= 3.300000  PHI,EQ.RATIO= 3.300000

 THERMODYNAMIC PROPERTIES

 P, BAR            1.0000
 T, K              973.18
 RHO, KG/CU M    2.3916-1
 H, KJ/KG         -748.99
 U, KJ/KG        -1167.12
 G, KJ/KG        -11807.4
 S, KJ/(KG)(K)    11.3631

 M, (1/n)          19.352
 MW, MOL WT        19.336
 (dLV/dLP)t      -1.04303
 (dLV/dLT)p        1.7083
 Cp, KJ/(KG)(K)    7.0218
 GAMMAs            1.1568
 SON VEL,M/SEC      695.5

 MOLE FRACTIONS

 CH3             4.619-10
 CH2OH           1.841-15
 CH4             1.4000-2
 CH3OH           6.970-10
 *CO             1.5569-1
 *CO2            2.4237-2
 COOH            7.692-14
 C2H2,acetylene  1.788-10
 CH2CO,ketene    7.671-10
 C2H3,vinyl      1.353-16
 CH3CN           8.5227-9
 CH3CO,acetyl    7.602-15
 C2H4            5.7123-8
 CH3CHO,ethanal  1.005-10
 CH3COOH         3.288-12
 C2H5            7.274-14
 C2H6            8.2364-8
 C2H5OH          8.973-14
 C2N2            1.966-15
 C3H4,allene     2.823-14
 C3H4,propyne    1.068-13
 C3H5,allyl      8.455-16
 C3H6,propylene  1.170-11
 C3H6,cyclo-     4.757-15
 C3H6O,acetone   2.739-14
 C3H6O,propanal  1.761-15
 C3H8            2.020-12
 C3O2            1.574-15
 C4H6,butadiene  6.884-16
 C4H8,1-butene   2.705-16
 C4H8,cis2-buten 2.108-16
 C4H8,tr2-butene 2.440-16
 C4H8,isobutene  3.780-16
 C6H6            7.330-16
 *H              6.239-10
 HCN             1.6201-6
 HCO             3.666-12
 HNC             1.5393-9
 HNCO            5.3601-8
 *H2             3.2944-1
 HCHO,formaldehy 2.9113-8
 HCOOH           6.2062-9
 H2O             3.1859-2
 NH2             2.169-13
 NH3             8.8411-5
 *NO             1.404-16
 *N2             4.4390-1
 *OH             1.392-13
 C(gr)           7.9133-4

  * THERMODYNAMIC PROPERTIES FITTED TO 20000.K









         THERMODYNAMIC EQUILIBRIUM COMBUSTION PROPERTIES AT ASSIGNED

                                   PRESSURES

 CASE =                

             REACTANT                       MOLES         ENERGY      TEMP
                                                         KJ/KG-MOL      K
 FUEL        CH4                          1.0000000    -74533.907    300.000
 OXIDANT     O2                           2.0000000        54.358    300.000
 OXIDANT     N2                           7.5238000        53.881    300.000

 O/F=    5.03746  %FUEL= 16.563268  R,EQ.RATIO= 3.400000  PHI,EQ.RATIO= 3.400000

 THERMODYNAMIC PROPERTIES

 P, BAR            1.0000
 T, K              968.52
 RHO, KG/CU M    2.3973-1
 H, KJ/KG         -767.97
 U, KJ/KG        -1185.11
 G, KJ/KG        -11791.4
 S, KJ/(KG)(K)    11.3818

 M, (1/n)          19.305
 MW, MOL WT        19.141
 (dLV/dLP)t      -1.04434
 (dLV/dLT)p        1.7285
 Cp, KJ/(KG)(K)    7.1975
 GAMMAs            1.1553
 SON VEL,M/SEC      694.2

 MOLE FRACTIONS

 CH3             4.309-10
 CH2OH           1.713-15
 CH4             1.5054-2
 CH3OH           7.309-10
 *CO             1.4924-1
 *CO2            2.4846-2
 COOH            7.142-14
 C2H2,acetylene  1.573-10
 CH2CO,ketene    7.207-10
 C2H3,vinyl      1.153-16
 CH3CN           8.3184-9
 CH3CO,acetyl    7.039-15
 C2H4            5.6946-8
 CH3CHO,ethanal  1.031-10
 CH3COOH         3.568-12
 C2H5            7.032-14
 C2H6            9.0649-8
 C2H5OH          9.757-14
 C2N2            1.608-15
 C3H4,allene     2.587-14
 C3H4,propyne    9.826-14
 C3H5,allyl      7.938-16
 C3H6,propylene  1.209-11
 C3H6,cyclo-     4.822-15
 C3H6O,acetone   2.949-14
 C3H6O,propanal  1.857-15
 C3H8            2.288-12
 C3O2            1.348-15
 C4H6,butadiene  6.719-16
 C4H8,1-butene   2.879-16
 C4H8,cis2-buten 2.257-16
 C4H8,tr2-butene 2.613-16
 C4H8,isobutene  4.062-16
 C6H6            7.301-16
 *H              5.462-10
 HCN             1.4916-6
 HCO             3.236-12
 HNC             1.3654-9
 HNCO            5.1828-8
 *H2             3.3144-1
 HCHO,formaldehy 2.8389-8
 HCOOH           6.4097-9
 H2O             3.3569-2
 NH2             1.948-13
 NH3             9.2199-5
 *NO             1.188-16
 *N2             4.3728-1
 *OH             1.230-13
 C(gr)           8.4838-3

  * THERMODYNAMIC PROPERTIES FITTED TO 20000.K









         THERMODYNAMIC EQUILIBRIUM COMBUSTION PROPERTIES AT ASSIGNED

                                   PRESSURES

 CASE =                

             REACTANT                       MOLES         ENERGY      TEMP
                                                         KJ/KG-MOL      K
 FUEL        CH4                          1.0000000    -74533.907    300.000
 OXIDANT     O2                           2.0000000        54.358    300.000
 OXIDANT     N2                           7.5238000        53.881    300.000

 O/F=    4.89353  %FUEL= 16.967764  R,EQ.RATIO= 3.500000  PHI,EQ.RATIO= 3.500000

 THERMODYNAMIC PROPERTIES

 P, BAR            1.0000
 T, K              964.03
 RHO, KG/CU M    2.4029-1
 H, KJ/KG         -786.78
 U, KJ/KG        -1202.94
 G, KJ/KG        -11776.7
 S, KJ/(KG)(K)    11.4000

 M, (1/n)          19.260
 MW, MOL WT        18.954
 (dLV/dLP)t      -1.04558
 (dLV/dLT)p        1.7471
 Cp, KJ/(KG)(K)    7.3600
 GAMMAs            1.1540
 SON VEL,M/SEC      693.0

 MOLE FRACTIONS

 CH3             4.025-10
 CH2OH           1.593-15
 CH4             1.6142-2
 CH3OH           7.640-10
 *CO             1.4307-1
 *CO2            2.5393-2
 COOH            6.629-14
 C2H2,acetylene  1.389-10
 CH2CO,ketene    6.772-10
 CH3CN           8.1192-9
 CH3CO,acetyl    6.520-15
 C2H4            5.6728-8
 CH3CHO,ethanal  1.056-10
 CH3COOH         3.851-12
 C2H5            6.797-14
 C2H6            9.9375-8
 C2H5OH          1.056-13
 C2N2            1.323-15
 C3H4,allene     2.375-14
 C3H4,propyne    9.054-14
 C3H5,allyl      7.459-16
 C3H6,propylene  1.247-11
 C3H6,cyclo-     4.881-15
 C3H6O,acetone   3.162-14
 C3H6O,propanal  1.951-15
 C3H8            2.579-12
 C3O2            1.156-15
 C4H6,butadiene  6.555-16
 C4H8,1-butene   3.053-16
 C4H8,cis2-buten 2.407-16
 C4H8,tr2-butene 2.789-16
 C4H8,isobutene  4.349-16
 C6H6            7.264-16
 *H              4.799-10
 HCN             1.3762-6
 HCO             2.863-12
 HNC             1.2150-9
 HNCO            5.0091-8
 *H2             3.3326-1
 HCHO,formaldehy 2.7658-8
 HCOOH           6.5957-9
 H2O             3.5263-2
 NH2             1.754-13
 NH3             9.5974-5
 *NO             1.009-16
 *N2             4.3091-1
 *OH             1.089-13
 C(gr)           1.5873-2

  * THERMODYNAMIC PROPERTIES FITTED TO 20000.K









         THERMODYNAMIC EQUILIBRIUM COMBUSTION PROPERTIES AT ASSIGNED

                                   PRESSURES

 CASE =                

             REACTANT                       MOLES         ENERGY      TEMP
                                                         KJ/KG-MOL      K
 FUEL        CH4                          1.0000000    -74533.907    300.000
 OXIDANT     O2                           2.0000000        54.358    300.000
 OXIDANT     N2                           7.5238000        53.881    300.000

 O/F=    4.75760  %FUEL= 17.368357  R,EQ.RATIO= 3.600000  PHI,EQ.RATIO= 3.600000

 THERMODYNAMIC PROPERTIES

 P, BAR            1.0000
 T, K              959.70
 RHO, KG/CU M    2.4083-1
 H, KJ/KG         -805.39
 U, KJ/KG        -1220.63
 G, KJ/KG        -11763.1
 S, KJ/(KG)(K)    11.4178

 M, (1/n)          19.217
 MW, MOL WT        18.775
 (dLV/dLP)t      -1.04676
 (dLV/dLT)p        1.7643
 Cp, KJ/(KG)(K)    7.5101
 GAMMAs            1.1529
 SON VEL,M/SEC      691.9

 MOLE FRACTIONS

 CH3             3.764-10
 CH2OH           1.482-15
 CH4             1.7263-2
 CH3OH           7.961-10
 *CO             1.3715-1
 *CO2            2.5881-2
 COOH            6.149-14
 C2H2,acetylene  1.229-10
 CH2CO,ketene    6.365-10
 CH3CN           7.9247-9
 CH3CO,acetyl    6.041-15
 C2H4            5.6471-8
 CH3CHO,ethanal  1.078-10
 CH3COOH         4.136-12
 C2H5            6.569-14
 C2H6            1.0855-7
 C2H5OH          1.138-13
 C2N2            1.094-15
 C3H4,allene     2.184-14
 C3H4,propyne    8.353-14
 C3H5,allyl      7.012-16
 C3H6,propylene  1.284-11
 C3H6,cyclo-     4.932-15
 C3H6O,acetone   3.376-14
 C3H6O,propanal  2.042-15
 C3H8            2.892-12
 C3O2            9.931-16
 C4H6,butadiene  6.391-16
 C4H8,1-butene   3.228-16
 C4H8,cis2-buten 2.559-16
 C4H8,tr2-butene 2.967-16
 C4H8,isobutene  4.641-16
 C6H6            7.218-16
 *H              4.231-10
 HCN             1.2721-6
 HCO             2.537-12
 HNC             1.0842-9
 HNCO            4.8392-8
 *H2             3.3492-1
 HCHO,formaldehy 2.6925-8
 HCOOH           6.7647-9
 H2O             3.6940-2
 NH2             1.583-13
 NH3             9.9735-5
 *N2             4.2477-1
 *OH             9.663-14
 C(gr)           2.2971-2

  * THERMODYNAMIC PROPERTIES FITTED TO 20000.K



