

         NASA-GLENN CHEMICAL EQUILIBRIUM PROGRAM CEA2, FEBRUARY 5, 2004
                   BY  BONNIE MCBRIDE AND SANFORD GORDON
      REFS: NASA RP-1311, PART I, 1994 AND NASA RP-1311, PART II, 1996

 *******************************************************************************

  
 ### CEA analysis performed on Tue 02-Aug-2022 02:49:57
  
 # Problem Type: "Rocket" (Infinite Area Combustor)
  
 prob case=test___________2919 ro equilibrium
  
 # Pressure (1 value):
 p,atm= 100
 # Supersonic Area Ratio (1 value):
 supar= 3
  
 # Equivalence based on Fuel/Oxid. wt ratio (Eq 9.19*) (10 values):
 phi= 3.1, 3.2, 3.3, 3.4, 3.5, 3.6, 3.7, 3.8, 3.9, 4
  
 # You selected the following fuels and oxidizers:
 reac
 fuel H2(L)             wt%=100.0000
 oxid O2(L)             wt%=100.0000
  
 # You selected these options for output:
 # short version of output
 output short
 # Proportions of any products will be expressed as Mole Fractions.
 # Heat will be expressed as siunits
 output siunits
 # Trace variable:
 output trace=1e-16
  
 # Input prepared by this script:/var/www/sites/cearun.grc.nasa.gov/cgi-bin/CEARU
 N/prepareInputFile.cgi
  
 ### IMPORTANT:  The following line is the end of your CEA input file!
 end

              THEORETICAL ROCKET PERFORMANCE ASSUMING EQUILIBRIUM

           COMPOSITION DURING EXPANSION FROM INFINITE AREA COMBUSTOR

 Pin =  1469.6 PSIA
 CASE = test___________

             REACTANT                    WT FRACTION      ENERGY      TEMP
                                          (SEE NOTE)     KJ/KG-MOL      K  
 FUEL        H2(L)                        1.0000000     -9012.000     20.270
 OXIDANT     O2(L)                        1.0000000    -12979.000     90.170

 O/F=    2.56022  %FUEL= 28.088150  R,EQ.RATIO= 3.100000  PHI,EQ.RATIO= 3.100000

                 CHAMBER   THROAT     EXIT
 Pinf/P            1.0000   1.8117   17.746
 P, BAR            101.33   55.927   5.7097
 T, K             2182.68  1931.75  1159.76
 RHO, KG/CU M    4.0062 0 2.4989 0 4.2496-1
 H, KJ/KG        -1547.36 -2962.66 -6984.96
 U, KJ/KG        -4076.55 -5200.72 -8328.53
 G, KJ/KG        -57353.9 -52353.6 -36637.6
 S, KJ/(KG)(K)    25.5680  25.5680  25.5680

 M, (1/n)           7.175    7.177    7.177
 (dLV/dLP)t      -1.00011 -1.00003 -1.00000
 (dLV/dLT)p        1.0029   1.0008   1.0000
 Cp, KJ/(KG)(K)    5.7602   5.5430   4.8561
 GAMMAs            1.2535   1.2648   1.3133
 SON VEL,M/SEC     1780.5   1682.4   1328.4
 MACH NUMBER        0.000    1.000    2.483

 PERFORMANCE PARAMETERS

 Ae/At                      1.0000   3.0000
 CSTAR, M/SEC               2410.1   2410.1
 CF                         0.6981   1.3683
 Ivac, M/SEC                3012.7   3705.2
 Isp, M/SEC                 1682.4   3297.8

 MOLE FRACTIONS

 *H              4.1782-4 1.1072-4 3.1297-8
 HO2             3.558-11 1.237-12 2.785-21
 *H2             6.7707-1 6.7733-1 6.7742-1
 H2O             3.2248-1 3.2256-1 3.2258-1
 H2O2            5.122-10 3.846-11 1.365-17
 *O              1.161 -8 5.593-10 4.626-18
 *OH             3.022 -5 5.240 -6 1.180-10
 *O2             2.336 -9 1.157-10 1.132-18

  * THERMODYNAMIC PROPERTIES FITTED TO 20000.K

 NOTE. WEIGHT FRACTION OF FUEL IN TOTAL FUELS AND OF OXIDANT IN TOTAL OXIDANTS

              THEORETICAL ROCKET PERFORMANCE ASSUMING EQUILIBRIUM

           COMPOSITION DURING EXPANSION FROM INFINITE AREA COMBUSTOR

 Pin =  1469.6 PSIA
 CASE = test___________

             REACTANT                    WT FRACTION      ENERGY      TEMP
                                          (SEE NOTE)     KJ/KG-MOL      K  
 FUEL        H2(L)                        1.0000000     -9012.000     20.270
 OXIDANT     O2(L)                        1.0000000    -12979.000     90.170

 O/F=    2.48021  %FUEL= 28.733871  R,EQ.RATIO= 3.200000  PHI,EQ.RATIO= 3.200000

                 CHAMBER   THROAT     EXIT
 Pinf/P            1.0000   1.8141   17.874
 P, BAR            101.33   55.854   5.6688
 T, K             2130.51  1882.28  1121.86
 RHO, KG/CU M    4.0123 0 2.5037 0 4.2637-1
 H, KJ/KG        -1573.61 -2988.68 -6995.30
 U, KJ/KG        -4098.96 -5219.52 -8324.85
 G, KJ/KG        -56739.4 -51726.9 -36043.9
 S, KJ/(KG)(K)    25.8932  25.8932  25.8932

 M, (1/n)           7.015    7.015    7.016
 (dLV/dLP)t      -1.00008 -1.00002 -1.00000
 (dLV/dLT)p        1.0021   1.0006   1.0000
 Cp, KJ/(KG)(K)    5.8148   5.6028   4.9129
 GAMMAs            1.2573   1.2686   1.3179
 SON VEL,M/SEC     1781.9   1682.3   1323.7
 MACH NUMBER        0.000    1.000    2.488

 PERFORMANCE PARAMETERS

 Ae/At                      1.0000   3.0000
 CSTAR, M/SEC               2405.6   2405.6
 CF                         0.6993   1.3688
 Ivac, M/SEC                3008.4   3696.7
 Isp, M/SEC                 1682.3   3292.9

 MOLE FRACTIONS

 *H              3.0971-4 7.7042-5 1.4487-8
 HO2             1.639-11 4.931-13 4.364-22
 *H2             6.8724-1 6.8744-1 6.8750-1
 H2O             3.1243-1 3.1248-1 3.1250-1
 H2O2            2.906-10 1.970-11 3.631-18
 *O              5.593 -9 2.335-10 7.668-19
 *OH             1.975 -5 3.156 -6 4.197-11
 *O2             1.079 -9 4.640-11 1.819-19

  * THERMODYNAMIC PROPERTIES FITTED TO 20000.K

 NOTE. WEIGHT FRACTION OF FUEL IN TOTAL FUELS AND OF OXIDANT IN TOTAL OXIDANTS

              THEORETICAL ROCKET PERFORMANCE ASSUMING EQUILIBRIUM

           COMPOSITION DURING EXPANSION FROM INFINITE AREA COMBUSTOR

 Pin =  1469.6 PSIA
 CASE = test___________

             REACTANT                    WT FRACTION      ENERGY      TEMP
                                          (SEE NOTE)     KJ/KG-MOL      K  
 FUEL        H2(L)                        1.0000000     -9012.000     20.270
 OXIDANT     O2(L)                        1.0000000    -12979.000     90.170

 O/F=    2.40506  %FUEL= 29.368098  R,EQ.RATIO= 3.300000  PHI,EQ.RATIO= 3.300000

                 CHAMBER   THROAT     EXIT
 Pinf/P            1.0000   1.8164   17.998
 P, BAR            101.33   55.783   5.6297
 T, K             2080.67  1835.17  1086.14
 RHO, KG/CU M    4.0199 0 2.5094 0 4.2791-1
 H, KJ/KG        -1599.39 -3013.66 -7003.53
 U, KJ/KG        -4119.99 -5236.64 -8319.16
 G, KJ/KG        -56131.3 -51111.3 -35470.0
 S, KJ/(KG)(K)    26.2088  26.2088  26.2088

 M, (1/n)           6.863    6.864    6.864
 (dLV/dLP)t      -1.00006 -1.00001 -1.00000
 (dLV/dLT)p        1.0016   1.0004   1.0000
 Cp, KJ/(KG)(K)    5.8708   5.6624   4.9699
 GAMMAs            1.2610   1.2724   1.3223
 SON VEL,M/SEC     1782.8   1681.8   1318.9
 MACH NUMBER        0.000    1.000    2.493

 PERFORMANCE PARAMETERS

 Ae/At                      1.0000   3.0000
 CSTAR, M/SEC               2400.9   2400.9
 CF                         0.7005   1.3693
 Ivac, M/SEC                3003.6   3687.8
 Isp, M/SEC                 1681.8   3287.6

 MOLE FRACTIONS

 *H              2.2934-4 5.3545-5 6.6719-9
 HO2             7.565-12 1.969-13 6.794-23
 *H2             6.9678-1 6.9692-1 6.9697-1
 H2O             3.0298-1 3.0302-1 3.0303-1
 H2O2            1.652-10 1.011-11 9.623-19
 *O              2.695 -9 9.748-11 1.260-19
 *OH             1.292 -5 1.902 -6 1.486-11
 *O2             5.003-10 1.865-11 2.906-20

  * THERMODYNAMIC PROPERTIES FITTED TO 20000.K

 NOTE. WEIGHT FRACTION OF FUEL IN TOTAL FUELS AND OF OXIDANT IN TOTAL OXIDANTS

              THEORETICAL ROCKET PERFORMANCE ASSUMING EQUILIBRIUM

           COMPOSITION DURING EXPANSION FROM INFINITE AREA COMBUSTOR

 Pin =  1469.6 PSIA
 CASE = test___________

             REACTANT                    WT FRACTION      ENERGY      TEMP
                                          (SEE NOTE)     KJ/KG-MOL      K  
 FUEL        H2(L)                        1.0000000     -9012.000     20.270
 OXIDANT     O2(L)                        1.0000000    -12979.000     90.170

 O/F=    2.33432  %FUEL= 29.991137  R,EQ.RATIO= 3.400000  PHI,EQ.RATIO= 3.400000

                 CHAMBER   THROAT     EXIT
 Pinf/P            1.0000   1.8186   18.119
 P, BAR            101.33   55.715   5.5923
 T, K             2033.01  1790.25  1052.43
 RHO, KG/CU M    4.0288 0 2.5159 0 4.2957-1
 H, KJ/KG        -1624.72 -3037.66 -7009.82
 U, KJ/KG        -4139.75 -5252.22 -8311.66
 G, KJ/KG        -55530.5 -50506.7 -34915.3
 S, KJ/(KG)(K)    26.5152  26.5152  26.5152

 M, (1/n)           6.721    6.721    6.722
 (dLV/dLP)t      -1.00004 -1.00001 -1.00000
 (dLV/dLT)p        1.0012   1.0003   1.0000
 Cp, KJ/(KG)(K)    5.9277   5.7213   5.0272
 GAMMAs            1.2645   1.2760   1.3264
 SON VEL,M/SEC     1783.3   1681.0   1314.0
 MACH NUMBER        0.000    1.000    2.497

 PERFORMANCE PARAMETERS

 Ae/At                      1.0000   3.0000
 CSTAR, M/SEC               2395.8   2395.8
 CF                         0.7017   1.3698
 Ivac, M/SEC                2998.4   3678.5
 Isp, M/SEC                 1681.0   3281.8

 MOLE FRACTIONS

 *H              1.6967-4 3.7174-5 3.0587-9
 HO2             3.499-12 7.874-14 1.051-23
 *H2             7.0574-1 7.0585-1 7.0588-1
 H2O             2.9408-1 2.9411-1 2.9412-1
 H2O2            9.412-11 5.197-12 2.541-19
 *O              1.300 -9 4.071-11 2.056-20
 *OH             8.450 -6 1.146 -6 5.240-12
 *O2             2.324-10 7.513-12 4.618-21

  * THERMODYNAMIC PROPERTIES FITTED TO 20000.K

 NOTE. WEIGHT FRACTION OF FUEL IN TOTAL FUELS AND OF OXIDANT IN TOTAL OXIDANTS

              THEORETICAL ROCKET PERFORMANCE ASSUMING EQUILIBRIUM

           COMPOSITION DURING EXPANSION FROM INFINITE AREA COMBUSTOR

 Pin =  1469.6 PSIA
 CASE = test___________

             REACTANT                    WT FRACTION      ENERGY      TEMP
                                          (SEE NOTE)     KJ/KG-MOL      K  
 FUEL        H2(L)                        1.0000000     -9012.000     20.270
 OXIDANT     O2(L)                        1.0000000    -12979.000     90.170

 O/F=    2.26762  %FUEL= 30.603280  R,EQ.RATIO= 3.500000  PHI,EQ.RATIO= 3.500000

                 CHAMBER   THROAT     EXIT
 Pinf/P            1.0000   1.8208   18.235
 P, BAR            101.33   55.649   5.5566
 T, K             1987.41  1747.39  1020.59
 RHO, KG/CU M    4.0389 0 2.5230 0 4.3133-1
 H, KJ/KG        -1649.60 -3060.75 -7014.33
 U, KJ/KG        -4158.34 -5266.39 -8302.56
 G, KJ/KG        -54937.4 -49913.1 -34379.2
 S, KJ/(KG)(K)    26.8127  26.8127  26.8127

 M, (1/n)           6.587    6.587    6.587
 (dLV/dLP)t      -1.00003 -1.00001 -1.00000
 (dLV/dLT)p        1.0009   1.0002   1.0000
 Cp, KJ/(KG)(K)    5.9848   5.7793   5.0852
 GAMMAs            1.2679   1.2796   1.3302
 SON VEL,M/SEC     1783.5   1680.0   1309.0
 MACH NUMBER        0.000    1.000    2.502

 PERFORMANCE PARAMETERS

 Ae/At                      1.0000   3.0000
 CSTAR, M/SEC               2390.5   2390.5
 CF                         0.7028   1.3702
 Ivac, M/SEC                2992.9   3668.9
 Isp, M/SEC                 1680.0   3275.6

 MOLE FRACTIONS

 *H              1.2543-4 2.5782-5 1.3965-9
 HO2             1.622-12 3.154-14 1.617-24
 *H2             7.1418-1 7.1426-1 7.1429-1
 H2O             2.8569-1 2.8571-1 2.8571-1
 H2O2            5.373-11 2.676-12 6.692-20
 *O              6.272-10 1.700-11 3.330-21
 *OH             5.532 -6 6.911 -7 1.841-12
 *O2             1.083-10 3.032-12 7.303-22

  * THERMODYNAMIC PROPERTIES FITTED TO 20000.K

 NOTE. WEIGHT FRACTION OF FUEL IN TOTAL FUELS AND OF OXIDANT IN TOTAL OXIDANTS

              THEORETICAL ROCKET PERFORMANCE ASSUMING EQUILIBRIUM

           COMPOSITION DURING EXPANSION FROM INFINITE AREA COMBUSTOR

 Pin =  1469.6 PSIA
 CASE = test___________

             REACTANT                    WT FRACTION      ENERGY      TEMP
                                          (SEE NOTE)     KJ/KG-MOL      K  
 FUEL        H2(L)                        1.0000000     -9012.000     20.270
 OXIDANT     O2(L)                        1.0000000    -12979.000     90.170

 O/F=    2.20463  %FUEL= 31.204811  R,EQ.RATIO= 3.600000  PHI,EQ.RATIO= 3.600000

                 CHAMBER   THROAT     EXIT
 Pinf/P            1.0000   1.8229   18.348
 P, BAR            101.33   55.585   5.5225
 T, K             1943.74  1706.44   990.48
 RHO, KG/CU M    4.0501 0 2.5309 0 4.3320-1
 H, KJ/KG        -1674.05 -3082.98 -7017.22
 U, KJ/KG        -4175.85 -5279.27 -8292.02
 G, KJ/KG        -54352.5 -49330.4 -33861.0
 S, KJ/(KG)(K)    27.1017  27.1017  27.1017

 M, (1/n)           6.460    6.460    6.460
 (dLV/dLP)t      -1.00002 -1.00000 -1.00000
 (dLV/dLT)p        1.0007   1.0001   1.0000
 Cp, KJ/(KG)(K)    6.0419   5.8363   5.1429
 GAMMAs            1.2711   1.2830   1.3338
 SON VEL,M/SEC     1783.3   1678.6   1304.0
 MACH NUMBER        0.000    1.000    2.507

 PERFORMANCE PARAMETERS

 Ae/At                      1.0000   3.0000
 CSTAR, M/SEC               2385.0   2385.0
 CF                         0.7038   1.3707
 Ivac, M/SEC                2987.0   3659.0
 Isp, M/SEC                 1678.6   3269.0

 MOLE FRACTIONS

 *H              9.266 -5 1.786 -5 6.353-10
 HO2             7.532-13 1.264-14 2.477-25
 *H2             7.2214-1 7.2221-1 7.2222-1
 H2O             2.7776-1 2.7777-1 2.7778-1
 H2O2            3.073-11 1.380-12 1.758-20
 *O              3.029-10 7.102-12 5.361-22
 *OH             3.624 -6 4.168 -7 6.446-13
 *O2             5.054-11 1.225-12 1.150-22

  * THERMODYNAMIC PROPERTIES FITTED TO 20000.K

 NOTE. WEIGHT FRACTION OF FUEL IN TOTAL FUELS AND OF OXIDANT IN TOTAL OXIDANTS

              THEORETICAL ROCKET PERFORMANCE ASSUMING EQUILIBRIUM

           COMPOSITION DURING EXPANSION FROM INFINITE AREA COMBUSTOR

 Pin =  1469.6 PSIA
 CASE = test___________

             REACTANT                    WT FRACTION      ENERGY      TEMP
                                          (SEE NOTE)     KJ/KG-MOL      K  
 FUEL        H2(L)                        1.0000000     -9012.000     20.270
 OXIDANT     O2(L)                        1.0000000    -12979.000     90.170

 O/F=    2.14505  %FUEL= 31.796003  R,EQ.RATIO= 3.700000  PHI,EQ.RATIO= 3.700000

                 CHAMBER   THROAT     EXIT
 Pinf/P            1.0000   1.8249   18.457
 P, BAR            101.33   55.523   5.4899
 T, K             1901.88  1667.28   961.97
 RHO, KG/CU M    4.0623 0 2.5393 0 4.3517-1
 H, KJ/KG        -1698.08 -3104.41 -7018.63
 U, KJ/KG        -4192.35 -5290.95 -8280.19
 G, KJ/KG        -53776.0 -48758.5 -33359.7
 S, KJ/(KG)(K)    27.3824  27.3824  27.3824

 M, (1/n)           6.340    6.340    6.340
 (dLV/dLP)t      -1.00002 -1.00000 -1.00000
 (dLV/dLT)p        1.0005   1.0001   1.0000
 Cp, KJ/(KG)(K)    6.0985   5.8923   5.1996
 GAMMAs            1.2743   1.2864   1.3373
 SON VEL,M/SEC     1782.8   1677.1   1298.9
 MACH NUMBER        0.000    1.000    2.511

 PERFORMANCE PARAMETERS

 Ae/At                      1.0000   3.0000
 CSTAR, M/SEC               2379.3   2379.3
 CF                         0.7049   1.3710
 Ivac, M/SEC                2980.9   3648.8
 Isp, M/SEC                 1677.1   3262.1

 MOLE FRACTIONS

 *H              6.841 -5 1.237 -5 2.880-10
 HO2             3.504-13 5.075-15 3.775-26
 *H2             7.2967-1 7.2972-1 7.2973-1
 H2O             2.7026-1 2.7027-1 2.7027-1
 H2O2            1.761-11 7.127-13 4.606-21
 *O              1.463-10 2.966-12 8.580-23
 *OH             2.375 -6 2.513 -7 2.250-13
 *O2             2.364-11 4.959-13 1.804-23

  * THERMODYNAMIC PROPERTIES FITTED TO 20000.K

 NOTE. WEIGHT FRACTION OF FUEL IN TOTAL FUELS AND OF OXIDANT IN TOTAL OXIDANTS

              THEORETICAL ROCKET PERFORMANCE ASSUMING EQUILIBRIUM

           COMPOSITION DURING EXPANSION FROM INFINITE AREA COMBUSTOR

 Pin =  1469.6 PSIA
 CASE = test___________

             REACTANT                    WT FRACTION      ENERGY      TEMP
                                          (SEE NOTE)     KJ/KG-MOL      K  
 FUEL        H2(L)                        1.0000000     -9012.000     20.270
 OXIDANT     O2(L)                        1.0000000    -12979.000     90.170

 O/F=    2.08860  %FUEL= 32.377121  R,EQ.RATIO= 3.800000  PHI,EQ.RATIO= 3.800000

                 CHAMBER   THROAT     EXIT
 Pinf/P            1.0000   1.8269   18.562
 P, BAR            101.33   55.462   5.4589
 T, K             1861.73  1629.79   934.95
 RHO, KG/CU M    4.0755 0 2.5483 0 4.3723-1
 H, KJ/KG        -1721.71 -3125.09 -7018.68
 U, KJ/KG        -4207.92 -5301.51 -8267.21
 G, KJ/KG        -53208.1 -48197.1 -32874.8
 S, KJ/(KG)(K)    27.6551  27.6551  27.6551

 M, (1/n)           6.226    6.226    6.226
 (dLV/dLP)t      -1.00001 -1.00000 -1.00000
 (dLV/dLT)p        1.0004   1.0001   1.0000
 Cp, KJ/(KG)(K)    6.1546   5.9470   5.2571
 GAMMAs            1.2774   1.2896   1.3405
 SON VEL,M/SEC     1782.1   1675.3   1293.7
 MACH NUMBER        0.000    1.000    2.516

 PERFORMANCE PARAMETERS

 Ae/At                      1.0000   3.0000
 CSTAR, M/SEC               2373.3   2373.3
 CF                         0.7059   1.3714
 Ivac, M/SEC                2974.4   3638.4
 Isp, M/SEC                 1675.3   3254.8

 MOLE FRACTIONS

 *H              5.048 -5 8.552 -6 1.301-10
 HO2             1.633-13 2.039-15 5.729-27
 *H2             7.3680-1 7.3683-1 7.3684-1
 H2O             2.6315-1 2.6316-1 2.6316-1
 H2O2            1.010-11 3.685-13 1.204-21
 *O              7.076-11 1.238-12 1.366-23
 *OH             1.558 -6 1.516 -7 7.830-14
 *O2             1.108-11 2.009-13 2.820-24

  * THERMODYNAMIC PROPERTIES FITTED TO 20000.K

 NOTE. WEIGHT FRACTION OF FUEL IN TOTAL FUELS AND OF OXIDANT IN TOTAL OXIDANTS

              THEORETICAL ROCKET PERFORMANCE ASSUMING EQUILIBRIUM

           COMPOSITION DURING EXPANSION FROM INFINITE AREA COMBUSTOR

 Pin =  1469.6 PSIA
 CASE = test___________

             REACTANT                    WT FRACTION      ENERGY      TEMP
                                          (SEE NOTE)     KJ/KG-MOL      K  
 FUEL        H2(L)                        1.0000000     -9012.000     20.270
 OXIDANT     O2(L)                        1.0000000    -12979.000     90.170

 O/F=    2.03505  %FUEL= 32.948420  R,EQ.RATIO= 3.900000  PHI,EQ.RATIO= 3.900000

                 CHAMBER   THROAT     EXIT
 Pinf/P            1.0000   1.8289   18.663
 P, BAR            101.33   55.403   5.4293
 T, K             1823.19  1593.87   909.31
 RHO, KG/CU M    4.0895 0 2.5578 0 4.3936-1
 H, KJ/KG        -1744.93 -3145.04 -7017.49
 U, KJ/KG        -4222.61 -5311.05 -8253.20
 G, KJ/KG        -52648.7 -47646.2 -32405.6
 S, KJ/(KG)(K)    27.9202  27.9202  27.9202

 M, (1/n)           6.118    6.118    6.118
 (dLV/dLP)t      -1.00001 -1.00000 -1.00000
 (dLV/dLT)p        1.0003   1.0001   1.0000
 Cp, KJ/(KG)(K)    6.2098   6.0007   5.3151
 GAMMAs            1.2803   1.2928   1.3435
 SON VEL,M/SEC     1781.1   1673.4   1288.5
 MACH NUMBER        0.000    1.000    2.520

 PERFORMANCE PARAMETERS

 Ae/At                      1.0000   3.0000
 CSTAR, M/SEC               2367.3   2367.3
 CF                         0.7069   1.3718
 Ivac, M/SEC                2967.8   3627.9
 Isp, M/SEC                 1673.4   3247.3

 MOLE FRACTIONS

 *H              3.723 -5 5.909 -6 5.863-11
 HO2             7.620-14 8.194-16 8.665-28
 *H2             7.4356-1 7.4358-1 7.4359-1
 H2O             2.5640-1 2.5641-1 2.5641-1
 H2O2            5.808-12 1.907-13 3.143-22
 *O              3.423-11 5.166-13 2.164-24
 *OH             1.022 -6 9.141 -8 2.719-14
 *O2             5.203-12 8.148-14 4.395-25

  * THERMODYNAMIC PROPERTIES FITTED TO 20000.K

 NOTE. WEIGHT FRACTION OF FUEL IN TOTAL FUELS AND OF OXIDANT IN TOTAL OXIDANTS

              THEORETICAL ROCKET PERFORMANCE ASSUMING EQUILIBRIUM

           COMPOSITION DURING EXPANSION FROM INFINITE AREA COMBUSTOR

 Pin =  1469.6 PSIA
 CASE = test___________

             REACTANT                    WT FRACTION      ENERGY      TEMP
                                          (SEE NOTE)     KJ/KG-MOL      K  
 FUEL        H2(L)                        1.0000000     -9012.000     20.270
 OXIDANT     O2(L)                        1.0000000    -12979.000     90.170

 O/F=    1.98417  %FUEL= 33.510148  R,EQ.RATIO= 4.000000  PHI,EQ.RATIO= 4.000000

                 CHAMBER   THROAT     EXIT
 Pinf/P            1.0000   1.8308   18.760
 P, BAR            101.33   55.346   5.4011
 T, K             1786.16  1559.42   884.97
 RHO, KG/CU M    4.1043 0 2.5679 0 4.4158-1
 H, KJ/KG        -1767.76 -3164.32 -7015.15
 U, KJ/KG        -4236.49 -5319.64 -8238.29
 G, KJ/KG        -52097.9 -47105.4 -31951.7
 S, KJ/(KG)(K)    28.1779  28.1779  28.1779

 M, (1/n)           6.016    6.016    6.016
 (dLV/dLP)t      -1.00001 -1.00000 -1.00000
 (dLV/dLT)p        1.0002   1.0000   1.0000
 Cp, KJ/(KG)(K)    6.2641   6.0531   5.3734
 GAMMAs            1.2833   1.2959   1.3463
 SON VEL,M/SEC     1779.9   1671.3   1283.2
 MACH NUMBER        0.000    1.000    2.525

 PERFORMANCE PARAMETERS

 Ae/At                      1.0000   3.0000
 CSTAR, M/SEC               2361.0   2361.0
 CF                         0.7079   1.3721
 Ivac, M/SEC                2960.9   3617.1
 Isp, M/SEC                 1671.3   3239.6

 MOLE FRACTIONS

 *H              2.744 -5 4.079 -6 2.636-11
 HO2             3.561-14 3.295-16 1.307-28
 *H2             7.4998-1 7.5000-1 7.5000-1
 H2O             2.5000-1 2.5000-1 2.5000-1
 H2O2            3.343-12 9.875-14 8.193-23
 *O              1.656-11 2.155-13 3.417-25
 *OH             6.707 -7 5.512 -8 9.421-15
 *O2             2.447-12 3.307-14 6.834-26

  * THERMODYNAMIC PROPERTIES FITTED TO 20000.K

 NOTE. WEIGHT FRACTION OF FUEL IN TOTAL FUELS AND OF OXIDANT IN TOTAL OXIDANTS