

         NASA-GLENN CHEMICAL EQUILIBRIUM PROGRAM CEA2, FEBRUARY 5, 2004
                   BY  BONNIE MCBRIDE AND SANFORD GORDON
      REFS: NASA RP-1311, PART I, 1994 AND NASA RP-1311, PART II, 1996

 *******************************************************************************

  
 ### CEA analysis performed on Thu 12-Jan-2023 11:02:24
  
 # Problem Type: "Assigned Temperature and Pressure"
  
 prob case=test___________4202 tp
  
 # Pressure (1 value):
 p,atm= 1
 # Temperature (16 values):
 t,k= 400, 500, 600, 700, 800, 900, 1000, 1100, 1200, 1300, 1400, 1500, 1600, 170
 0, 1800, 1900
  
 # You selected the following fuels and oxidizers:
 reac
 fuel C6H5OH,phenol    mole= 90.0000
 fuel Si               mole= 10.0000
  
 # You selected these options for output:
 # short version of output
 output short
 # Proportions of any products will be expressed as Mole Fractions.
 # Heat will be expressed as siunits
 output siunits
 # Trace variable:
 output trace=1e-16
  
 # Input prepared by this script:/var/www/sites/cearun.grc.nasa.gov/cgi-bin/CEARU
 N/prepareInputFile.cgi
  
 ### IMPORTANT:  The following line is the end of your CEA input file!
 end

               THERMODYNAMIC EQUILIBRIUM PROPERTIES AT ASSIGNED

                           TEMPERATURE AND PRESSURE

 CASE = test___________

             REACTANT                       MOLES         ENERGY      TEMP
                                                         KJ/KG-MOL      K
 FUEL        C6H5OH,phenol               90.0000000         0.000      0.000
 FUEL        Si                          10.0000000         0.000      0.000

 O/F=    0.00000  %FUEL=100.000000  R,EQ.RATIO=15.222222  PHI,EQ.RATIO= 0.000000

 THERMODYNAMIC PROPERTIES

 P, BAR            1.0132   1.0132   1.0132   1.0132   1.0132   1.0132   1.0132   1.0132
 T, K              400.00   500.00   600.00   700.00   800.00   900.00  1000.00  1100.00
 RHO, KG/CU M    1.5672 0 1.2450 0 1.0056 0 7.9331-1 6.0015-1 4.4748-1 3.4871-1 2.9610-1
 H, KJ/KG        -3694.24 -3530.13 -3303.95 -2958.35 -2426.23 -1684.38  -890.22  -344.11
 U, KJ/KG        -3758.90 -3611.52 -3404.70 -3086.08 -2595.07 -1910.81 -1180.79  -686.32
 G, KJ/KG        -5480.90 -5945.67 -6448.61 -6997.90 -7608.77 -8299.20 -9077.92 -9925.49
 S, KJ/(KG)(K)     4.4666   4.8311   5.2411   5.7708   6.4782   7.3498   8.1877   8.7103

 M, (1/n)          51.439   51.082   49.512   45.568   39.398   33.047   28.615   26.727
 MW, MOL WT        14.177   14.196   14.030   13.478   12.549   11.648   11.104   10.859
 (dLV/dLP)t      -1.00036 -1.00382 -1.01882 -1.05416 -1.09648 -1.10981 -1.07710 -1.03416
 (dLV/dLT)p        1.0083   1.0743   1.3158   1.8108   2.3540   2.5470   2.0617   1.4199
 Cp, KJ/(KG)(K)    1.4483   1.8795   2.7425   4.2908   6.4059   8.2124   6.9627   4.1891
 GAMMAs            1.1275   1.1063   1.0955   1.0932   1.0942   1.0976   1.1115   1.1307
 SON VEL,M/SEC      270.0    300.1    332.2    373.7    429.8    498.5    568.3    622.0

 MOLE FRACTIONS

 CH3             3.888-25 8.267-20 2.918-16 9.131-14 5.649-12 1.096-10 9.471-10 4.813 -9
 CH2OH           3.328-33 6.895-27 1.069-22 9.455-20 1.237-17 3.729-16 3.201-15 1.140-14
 CH3O            0.000  0 1.600-30 8.701-26 1.909-22 4.988-20 2.597-18 3.481-17 1.797-16
 CH4             1.6420-1 1.6513-1 1.5736-1 1.3147-1 8.7934-2 4.5751-2 2.0264-2 8.7657-3
 CH3OH           2.188-14 2.106-12 4.023-11 2.799-10 8.870-10 1.338 -9 9.673-10 4.390-10
 *CO             5.6268-9 1.5082-6 6.1469-5 8.7301-4 6.4017-3 2.7068-2 6.0324-2 7.8656-2
 *CO2            2.4000-3 5.0259-3 7.7777-3 1.0522-2 1.2870-2 1.1758-2 5.3904-3 1.3622-3
 COOH            8.752-30 2.930-24 1.323-20 5.146-18 4.086-16 8.738-15 4.632-14 8.388-14
 C2H2,acetylene  7.247-31 7.011-24 3.246-19 6.712-16 1.854-13 1.270-11 3.253-10 4.166 -9
 CH2CO,ketene    4.031-24 4.084-19 8.594-16 1.901-13 9.471-12 1.478-10 8.083-10 2.058 -9
 O(CH)2O         5.632-34 6.284-28 6.340-24 4.260-21 4.781-19 1.228-17 7.033-17 1.319-16
 C2H3,vinyl      0.000  0 4.756-34 7.463-28 1.804-23 2.893-20 7.029-18 4.575-16 1.211-14
 CH3CO,acetyl    3.691-33 1.206-26 2.515-22 2.742-19 4.194-17 1.428-15 1.355-14 5.250-14
 C2H4            1.093-16 2.295-13 3.591-11 1.151 -9 1.188 -8 5.191 -8 1.261 -7 2.192 -7
 CH3CHO,ethanal  5.883-18 4.694-15 3.707-13 7.150-12 4.886-11 1.343-10 1.572-10 1.060-10
 CH3COOH         2.339-14 4.071-13 2.445-12 7.445-12 1.251-11 1.013-11 3.148-12 5.099-13
 C2H5            1.010-28 3.509-23 1.635-19 5.681-17 3.252-15 4.901-14 2.972-13 1.056-12
 C2H6            4.5312-8 2.4067-7 6.7470-7 1.1219-6 1.0819-6 6.1948-7 2.5467-7 9.6821-8
 C2H5OH          8.230-18 9.847-16 2.150-14 1.536-13 4.314-13 4.939-13 2.476-13 7.818-14
 CH3OCH3         3.853-25 9.705-22 1.597-19 4.787-18 3.917-17 1.026-16 9.954-17 5.384-17
 C3H3,2-propynl  0.000  0 1.515-36 9.547-30 6.358-25 2.205-21 9.830-19 1.044-16 4.136-15
 C3H4,allene     8.887-34 8.200-27 3.524-22 6.314-19 1.343-16 6.202-15 9.958-14 8.130-13
 C3H4,propyne    9.736-33 6.303-26 2.136-21 3.222-18 6.009-16 2.500-14 3.688-13 2.806-12
 C3H5,allyl      2.900-34 1.586-27 4.779-23 6.425-20 1.029-17 3.484-16 4.067-15 2.482-14
 C3H6,propylene  5.733-20 1.616-16 3.004-14 1.005-12 9.235-12 3.059-11 5.125-11 6.152-11
 C3H6,cyclo-     7.423-26 1.475-21 1.001-18 8.456-17 1.562-15 8.935-15 2.326-14 4.016-14
 C3H6O,acetone   1.196-19 4.135-17 1.812-15 2.111-14 8.496-14 1.281-13 7.972-14 2.997-14
 C3H6O,propanal  2.008-23 4.912-20 8.186-18 2.523-16 2.132-15 5.770-15 5.770-15 3.210-15
 C3H8            3.353-13 4.852-12 2.608-11 6.416-11 7.187-11 3.847-11 1.294-11 3.911-12
 C3O2            0.000  0 1.368-31 3.875-26 3.052-22 2.504-19 3.625-17 9.571-16 6.668-15
 C4H6,butadiene  2.271-31 1.569-25 1.198-21 5.892-19 4.158-17 6.825-16 4.159-15 1.447-14
 C4H6,1butyne    0.000  0 1.184-30 8.019-26 1.840-22 4.066-20 1.605-18 1.957-17 1.194-16
 C4H6,2butyne    9.317-36 5.177-29 1.516-24 1.880-21 2.589-19 7.026-18 6.319-17 2.995-16
 C4H8,1-butene   3.932-25 3.061-21 1.097-18 5.438-17 5.803-16 1.794-15 2.453-15 2.337-15
 C4H8,cis2-buten 1.370-24 6.715-21 1.729-18 6.675-17 5.852-16 1.543-15 1.850-15 1.578-15
 C4H8,tr2-butene 2.297-24 9.582-21 2.257-18 8.260-17 7.001-16 1.806-15 2.133-15 1.802-15
 C4H8,isobutene  9.904-24 2.890-20 5.393-18 1.676-16 1.259-15 2.958-15 3.245-15 2.580-15
 C4H10,n-butane  2.283-18 9.073-17 9.465-16 3.485-15 4.584-15 2.316-15 6.427-16 1.558-16
 C4H10,isobutane 6.387-18 1.448-16 1.041-15 2.946-15 3.189-15 1.387-15 3.420-16 7.534-17
 C5H6,1,3cyclo-  4.129-35 1.103-28 1.991-24 1.767-21 1.914-19 4.346-18 3.415-17 1.458-16
 C6H6            5.832-29 6.934-24 1.556-20 3.093-18 1.085-16 1.021-15 3.955-15 9.441-15
 *H              1.378-28 2.377-22 3.590-18 3.538-15 6.147-13 3.275-11 7.495-10 9.152 -9
 HCO             2.100-32 1.698-25 6.619-21 1.216-17 3.180-15 1.975-13 3.507-12 2.418-11
 HCCO            0.000  0 0.000  0 1.161-31 1.058-26 5.208-23 3.185-20 3.534-18 1.093-16
 *H2             3.9242-4 4.2524-3 2.1558-2 6.7015-2 1.4307-1 2.2530-1 2.8436-1 3.1203-1
 HCHO,formaldehy 7.694-18 2.084-14 3.807-12 1.446-10 1.904 -9 1.051 -8 2.494 -8 3.203 -8
 HCOOH           3.650-13 1.733-11 2.094-10 1.141 -9 3.449 -9 5.323 -9 3.221 -9 9.623-10
 H2O             1.0860-1 1.0350-1 9.6616-2 8.5895-2 6.8238-2 4.2593-2 1.7720-2 5.4820-3
 *OH             1.508-33 9.343-27 3.116-22 5.204-19 1.280-16 7.645-15 1.324-13 8.981-13
 SiO             0.000  0 0.000  0 0.000  0 3.144-32 1.538-26 4.739-22 2.620-18 4.086-15
 C(gr)           7.0820-1 7.0587-1 7.0059-1 6.8883-1 6.6715-1 6.3422-1 5.9925-1 5.8130-1
 SiO2(a-qz)      1.6200-2 1.6223-2 1.6033-2 1.5402-2 1.4340-2 0.0000 0 0.0000 0 0.0000 0
 SiO2(b-qz)      0.0000 0 0.0000 0 0.0000 0 0.0000 0 0.0000 0 1.3311-2 1.2689-2 1.2409-2

  * THERMODYNAMIC PROPERTIES FITTED TO 20000.K

               THERMODYNAMIC EQUILIBRIUM PROPERTIES AT ASSIGNED

                           TEMPERATURE AND PRESSURE

 CASE = test___________

             REACTANT                       MOLES         ENERGY      TEMP
                                                         KJ/KG-MOL      K
 FUEL        C6H5OH,phenol               90.0000000         0.000      0.000
 FUEL        Si                          10.0000000         0.000      0.000

 O/F=    0.00000  %FUEL=100.000000  R,EQ.RATIO=15.222222  PHI,EQ.RATIO= 0.000000

 THERMODYNAMIC PROPERTIES

 P, BAR            1.0132   1.0132   1.0132   1.0132   1.0132   1.0132   1.0132   1.0132
 T, K             1200.00  1300.00  1400.00  1500.00  1600.00  1700.00  1800.00  1900.00
 RHO, KG/CU M    2.6525-1 2.4289-1 2.2481-1 2.0951-1 1.9622-1 1.7437-1 1.6463-1 1.5591-1
 H, KJ/KG          8.3943   300.59   573.20   842.19  1114.60  2061.16  2334.78  2613.33
 U, KJ/KG         -373.60  -116.57   122.49   358.57   598.22  1480.07  1719.31  1963.45
 G, KJ/KG        -10812.9 -11726.8 -12662.3 -13617.1 -14589.9 -15593.9 -16640.3 -17702.0
 S, KJ/(KG)(K)     9.0177   9.2519   9.4539   9.6395   9.8153  10.3853  10.5417  10.6923

 M, (1/n)          26.119   25.910   25.827   25.788   25.762   24.324   24.317   24.309
 MW, MOL WT        10.758   10.716   10.696   10.686   10.681   10.805   10.802   10.800
 (dLV/dLP)t      -1.01418 -1.00657 -1.00342 -1.00197 -1.00169 -1.00077 -1.00058 -1.00054
 (dLV/dLT)p        1.1525   1.0626   1.0294   1.0159   1.0210   1.0060   1.0055   1.0070
 Cp, KJ/(KG)(K)    3.0827   2.7748   2.6965   2.6914   2.8010   2.7163   2.7582   2.8160
 GAMMAs            1.1402   1.1416   1.1404   1.1385   1.1343   1.1449   1.1425   1.1398
 SON VEL,M/SEC      660.0    690.1    716.9    742.0    765.3    815.7    838.6    860.6

 MOLE FRACTIONS

 *C              3.860-24 9.910-22 1.148-19 7.037-18 2.575-16 6.599-15 1.108-13 1.380-12
 *CH             2.677-21 2.657-19 1.359-17 4.095-16 8.044-15 1.157-13 1.191-12 9.576-12
 CH2             2.339-15 4.588-14 5.832-13 5.255-12 3.585-11 1.970-10 8.839-10 3.380 -9
 CH3             1.7523-8 5.1069-8 1.2646-7 2.7602-7 5.4463-7 9.7359-7 1.6525-6 2.6481-6
 CH2OH           2.714-14 5.384-14 9.570-14 1.571-13 2.423-13 4.227-13 5.937-13 8.046-13
 CH3O            5.866-16 1.529-15 3.449-15 6.990-15 1.302-14 2.690-14 4.406-14 6.871-14
 CH4             4.0584-3 2.0624-3 1.1443-3 6.8481-4 4.3677-4 2.8107-4 1.9792-4 1.4480-4
 CH3OH           1.856-10 8.502-11 4.297-11 2.374-11 1.413-11 1.036-11 6.914-12 4.822-12
 *CO             8.3684-2 8.4916-2 8.5246-2 8.5343-2 8.5420-2 1.1065-1 1.1049-1 1.1028-1
 *CO2            3.2575-4 9.1444-5 3.0538-5 1.1837-5 5.1953-6 3.9512-6 2.0827-6 1.1784-6
 COOH            1.024-13 1.137-13 1.232-13 1.324-13 1.418-13 2.302-13 2.442-13 2.583-13
 *C2             3.433-27 2.104-24 5.113-22 5.936-20 3.784-18 1.577-16 4.068-15 7.425-14
 C2H             1.332-18 1.043-16 4.352-15 1.100-13 1.851-12 2.322-11 2.117-10 1.526 -9
 C2H2,acetylene  3.3167-8 1.8829-7 8.2731-7 2.9709-6 9.0668-6 2.4504-5 5.8562-5 1.2748-4
 C2H2,vinylidene 2.133-15 4.954-14 7.257-13 7.379-12 5.585-11 3.357-10 1.629 -9 6.671 -9
 CH2CO,ketene    3.7455-9 5.9478-9 8.7503-9 1.2202-8 1.6332-8 2.5861-8 3.2500-8 3.9888-8
 O(CH)2O         1.644-16 1.857-16 2.044-16 2.228-16 2.418-16 3.867-16 4.154-16 4.446-16
 C2H3,vinyl      1.740-13 1.618-12 1.082-11 5.581-11 2.335-10 8.094-10 2.473 -9 6.703 -9
 CH3CO,acetyl    1.344-13 2.845-13 5.357-13 9.268-13 1.501-12 2.737-12 4.007-12 5.646-12
 C2H4            3.2285-7 4.3589-7 5.5756-7 6.8663-7 8.2146-7 9.1863-7 1.0547-6 1.1921-6
 C2H4O,ethylen-o 4.769-17 6.967-17 9.542-17 1.253-16 1.595-16 2.290-16 2.782-16 3.320-16
 CH3CHO,ethanal  6.239-11 3.785-11 2.436-11 1.659-11 1.188-11 1.024-11 7.902-12 6.274-12
 CH3COOH         8.112-14 1.598-14 3.938-15 1.177-15 4.129-16 2.310-16 1.030-16 5.028-17
 C2H5            2.789-12 6.149-12 1.196-11 2.116-11 3.475-11 4.998-11 7.361-11 1.040-10
 C2H6            3.934 -8 1.774 -8 8.851 -9 4.821 -9 2.828 -9 1.596 -9 1.050 -9 7.228-10
 C2H5OH          2.397-14 8.320-15 3.314-15 1.490-15 7.424-16 4.400-16 2.561-16 1.583-16
 C2O             1.484-17 3.410-16 4.967-15 5.055-14 3.851-13 2.992-12 1.469-11 6.103-11
 *C3             4.243-26 2.634-23 6.437-21 7.476-19 4.749-17 1.966-15 5.022-14 9.058-13
 C3H3,1-propynl  1.880-19 5.496-18 9.790-17 1.179-15 1.034-14 6.883-14 3.753-13 1.706-12
 C3H3,2-propynl  8.333-14 1.033-12 8.835-12 5.645-11 2.848-10 1.165 -9 4.125 -9 1.275 -8
 C3H4,allene     4.350-12 1.750-11 5.711-11 1.584-10 3.855-10 8.067-10 1.616 -9 3.007 -9
 C3H4,propyne    1.414-11 5.407-11 1.687-10 4.499-10 1.058 -9 2.146 -9 4.183 -9 7.589 -9
 C3H4,cyclo-     6.210-16 4.815-15 2.757-14 1.245-13 4.642-13 1.416-12 3.965-12 9.951-12
 C3H5,allyl      1.034-13 3.361-13 9.141-13 2.168-12 4.611-12 8.342-12 1.509-11 2.563-11
 C3H6,propylene  6.518-11 6.612-11 6.608-11 6.571-11 6.524-11 5.855-11 5.820-11 5.789-11
 C3H6,cyclo-     5.774-14 7.603-14 9.522-14 1.153-13 1.363-13 1.429-13 1.633-13 1.842-13
 C3H6O,acetone   1.061-14 4.152-15 1.831-15 8.987-16 4.829-16 3.058-16 1.887-16 1.228-16
 C3H6O,propanal  1.580-15 8.195-16 4.608-16 2.796-16 1.810-16 1.353-16 9.677-17 7.192-17
 C3H7,n-propyl   8.215-17 1.536-16 2.590-16 4.053-16 5.983-16 7.408-16 1.006-15 1.322-15
 C3H7,i-propyl   1.081-16 1.850-16 2.886-16 4.218-16 5.861-16 6.876-16 8.894-16 1.119-15
 C3H8            1.287-12 4.828-13 2.054-13 9.754-14 5.079-14 2.441-14 1.468-14 9.323-15
 C3O2            2.529-14 7.355-14 1.821-13 4.003-13 8.014-13 2.324-12 4.021-12 6.586-12
 C4H2,butadiyne  1.251-15 4.033-14 7.845-13 1.022-11 9.616-11 7.012-10 4.045 -9 1.935 -8
 C4H4,1,3-cyclo- 1.642-20 2.931-19 3.428-18 2.875-17 1.842-16 9.057-16 3.877-15 1.422-14
 C4H6,butadiene  3.745-14 8.122-14 1.562-13 2.746-13 4.501-13 6.302-13 9.331-13 1.330-12
 C4H6,1butyne    4.909-16 1.569-15 4.195-15 9.790-15 2.050-14 3.554-14 6.342-14 1.064-13
 C4H6,2butyne    9.952-16 2.653-15 6.063-15 1.234-14 2.290-14 3.567-14 5.787-14 8.917-14
 C4H6,cyclo-     1.790-17 5.242-17 1.302-16 2.857-16 5.678-16 9.413-16 1.617-15 2.626-15
 C4H8,1-butene   2.001-15 1.684-15 1.433-15 1.239-15 1.090-15 8.319-16 7.541-16 6.913-16
 C4H8,cis2-buten 1.229-15 9.540-16 7.558-16 6.142-16 5.113-16 3.713-16 3.220-16 2.836-16
 C4H8,tr2-butene 1.394-15 1.077-15 8.511-16 6.905-16 5.742-16 4.169-16 3.616-16 3.186-16
 C4H8,isobutene  1.899-15 1.406-15 1.071-15 8.422-16 6.812-16 4.826-16 4.095-16 3.539-16
 C5H6,1,3cyclo-  4.462-16 1.114-15 2.413-15 4.701-15 8.420-15 1.273-14 2.014-14 3.039-14
 C6H2            5.236-23 9.469-21 8.073-19 3.782-17 1.091-15 2.135-14 2.960-13 3.102-12
 C6H5,phenyl     8.927-21 1.076-19 8.986-19 5.625-18 2.792-17 1.066-16 3.736-16 1.147-15
 C6H6            1.776-14 2.934-14 4.456-14 6.373-14 8.702-14 1.035-13 1.322-13 1.645-13
 *H              7.1466-8 4.0383-7 1.7814-6 6.4568-6 1.9962-5 5.6354-5 1.3696-4 3.0353-4
 HCO             1.020-10 3.309-10 8.988-10 2.132 -9 4.541 -9 1.114 -8 2.012 -8 3.415 -8
 HCCO            1.611-15 1.507-14 1.015-13 5.291-13 2.244-12 1.010-11 3.133-11 8.621-11
 *H2             3.2210-1 3.2588-1 3.2748-1 3.2823-1 3.2860-1 3.3273-1 3.3274-1 3.3262-1
 HCHO,formaldehy 3.2958-8 3.2292-8 3.1409-8 3.0609-8 2.9951-8 3.5986-8 3.5401-8 3.4911-8
 HCOOH           2.606-10 8.110-11 2.965-11 1.248-11 5.902-12 4.546-12 2.557-12 1.536-12
 H2O             1.7230-3 6.1897-4 2.5476-4 1.1782-4 6.0059-5 4.0594-5 2.3950-5 1.4952-5
 *O              6.916-19 1.189-17 1.358-16 1.125-15 7.184-15 4.796-14 2.065-13 7.645-13
 *OH             3.753-12 1.211-11 3.285-11 7.799-11 1.666-10 4.104-10 7.457-10 1.274 -9
 *Si             6.725-23 3.723-19 5.974-16 3.533-13 9.278-11 4.624 -9 3.522 -8 2.162 -7
 SiC             1.237-32 5.986-28 6.133-24 1.803-20 1.920-17 3.284-15 7.464-14 1.216-12
 SiC2            5.387-27 1.177-22 6.092-19 9.896-16 6.262-13 6.753-11 1.017 -9 1.146 -8
 SiH             2.010-21 5.811-18 5.329-15 1.939-12 3.324-10 1.105 -8 6.019 -8 2.736 -7
 SiH2            1.985-20 2.720-17 1.317-14 2.760-12 2.928-10 6.209 -9 2.331 -8 7.613 -8
 SiH3            1.438-20 1.156-17 3.542-15 4.996-13 3.747-11 5.689-10 1.627 -9 4.165 -9
 SiH4            1.800-17 3.877-15 3.845-13 2.043-11 6.533-10 4.552 -9 6.694 -9 9.459 -9
 SiO             2.046-12 3.889-10 3.453 -8 1.664 -6 4.881 -5 4.259 -4 5.821 -4 7.691 -4
 SiO2            3.129-17 2.663-15 1.190-13 3.179-12 5.598-11 3.785-10 3.495-10 3.265-10
 Si2             4.487-36 1.124-29 3.379-24 1.837-19 2.479-15 1.362-12 2.194-11 2.625-10
 Si2C            5.075-34 1.020-27 2.533-22 1.162-17 1.348-13 6.463-11 9.194-10 9.815 -9
 Si3             0.000  0 0.000  0 1.055-30 3.394-24 1.606-18 6.948-15 1.758-13 3.142-12
 C(gr)           5.7581-1 5.7418-1 5.7362-1 5.7339-1 5.7324-1 5.4386-1 5.4401-1 5.4416-1
 SiC(b)          0.0000 0 0.0000 0 0.0000 0 0.0000 0 0.0000 0 1.1922-2 1.1762-2 1.1571-2
 SiO2(b-qz)      1.2294-2 0.0000 0 0.0000 0 0.0000 0 0.0000 0 0.0000 0 0.0000 0 0.0000 0
 SiO2(b-crt)     0.0000 0 1.2245-2 1.2223-2 1.2210-2 1.2157-2 0.0000 0 0.0000 0 0.0000 0

  * THERMODYNAMIC PROPERTIES FITTED TO 20000.K