

         NASA-GLENN CHEMICAL EQUILIBRIUM PROGRAM CEA2, FEBRUARY 5, 2004
                   BY  BONNIE MCBRIDE AND SANFORD GORDON
      REFS: NASA RP-1311, PART I, 1994 AND NASA RP-1311, PART II, 1996

 *******************************************************************************

  
 ### CEA analysis performed on Sat 14-Jan-2023 07:52:20
  
 # Problem Type: "Assigned Temperature and Pressure"
  
 prob case=test___________4202 tp
  
 # Pressure (1 value):
 p,atm= 1
 # Temperature (1 value):
 t,k= 200
  
 # You selected the following fuels and oxidizers:
 reac
 fuel C6H5OH,phenol    mole= 90.0000
 fuel Si               mole= 10.0000
  
 # You selected these options for output:
 # short version of output
 output short
 # Proportions of any products will be expressed as Mole Fractions.
 # Heat will be expressed as siunits
 output siunits
 # Trace variable:
 output trace=1e-16
  
 # Input prepared by this script:/var/www/sites/cearun.grc.nasa.gov/cgi-bin/CEARU
 N/prepareInputFile.cgi
  
 ### IMPORTANT:  The following line is the end of your CEA input file!
 end

               THERMODYNAMIC EQUILIBRIUM PROPERTIES AT ASSIGNED

                           TEMPERATURE AND PRESSURE

 CASE = test___________

             REACTANT                       MOLES         ENERGY      TEMP
                                                         KJ/KG-MOL      K
 FUEL        C6H5OH,phenol               90.0000000         0.000      0.000
 FUEL        Si                          10.0000000         0.000      0.000

 O/F=    0.00000  %FUEL=100.000000  R,EQ.RATIO=15.222222  PHI,EQ.RATIO= 0.000000

 THERMODYNAMIC PROPERTIES

 P, BAR            1.0132
 T, K              200.00
 RHO, KG/CU M    5.3321 0
 H, KJ/KG        -4338.54
 U, KJ/KG        -4357.54
 G, KJ/KG        -4819.52
 S, KJ/(KG)(K)     2.4049

 M, (1/n)          87.509
 MW, MOL WT        14.114
 (dLV/dLP)t      -1.00000
 (dLV/dLT)p        1.0000
 Cp, KJ/(KG)(K)    0.8977
 GAMMAs            1.1184
 SON VEL,M/SEC      145.8

 MOLE FRACTIONS

 CH4             1.6129-1
 *CO2            1.211-16
 C2H6            1.181-11
 *H2             4.3868-9
 H2O             2.5942-7
 C(gr)           7.0968-1
 H2O(cr)         1.1290-1
 SiO2(a-qz)      1.6129-2

  * THERMODYNAMIC PROPERTIES FITTED TO 20000.K

         NASA-GLENN CHEMICAL EQUILIBRIUM PROGRAM CEA2, FEBRUARY 5, 2004
                   BY  BONNIE MCBRIDE AND SANFORD GORDON
      REFS: NASA RP-1311, PART I, 1994 AND NASA RP-1311, PART II, 1996

 *******************************************************************************

  
 ### CEA analysis performed on Sat 14-Jan-2023 06:01:17
  
 # Problem Type: "Assigned Temperature and Pressure"
  
 prob case=test___________4202 tp
  
 # Pressure (1 value):
 p,atm= 1
 # Temperature (1 value):
 t,k= 300
  
 # You selected the following fuels and oxidizers:
 reac
 fuel C6H5OH,phenol    mole= 90.0000
 fuel Si               mole= 10.0000
  
 # You selected these options for output:
 # short version of output
 output short
 # Proportions of any products will be expressed as Mole Fractions.
 # Heat will be expressed as siunits
 output siunits
 # Trace variable:
 output trace=1e-16
  
 # Input prepared by this script:/var/www/sites/cearun.grc.nasa.gov/cgi-bin/CEARU
 N/prepareInputFile.cgi
  
 ### IMPORTANT:  The following line is the end of your CEA input file!
 end

               THERMODYNAMIC EQUILIBRIUM PROPERTIES AT ASSIGNED

                           TEMPERATURE AND PRESSURE

 CASE = test___________

             REACTANT                       MOLES         ENERGY      TEMP
                                                         KJ/KG-MOL      K
 FUEL        C6H5OH,phenol               90.0000000         0.000      0.000
 FUEL        Si                          10.0000000         0.000      0.000

 O/F=    0.00000  %FUEL=100.000000  R,EQ.RATIO=15.222222  PHI,EQ.RATIO= 0.000000

 THERMODYNAMIC PROPERTIES

 P, BAR            1.0132
 T, K              300.00
 RHO, KG/CU M    3.4306 0
 H, KJ/KG        -4158.67
 U, KJ/KG        -4188.20
 G, KJ/KG        -5087.72
 S, KJ/(KG)(K)     3.0968

 M, (1/n)          84.453
 MW, MOL WT        14.114
 (dLV/dLP)t      -1.03619
 (dLV/dLT)p        1.6375
 Cp, KJ/(KG)(K)    2.5832
 GAMMAs            1.0707
 SON VEL,M/SEC      177.8

 MOLE FRACTIONS

 CH4             1.6129-1
 *CO             1.927-14
 *CO2            1.5620-6
 C2H6            3.4693-9
 C3H8            6.264-15
 *H2             6.7050-6
 H2O             5.8283-3
 C(gr)           7.0968-1
 H2O(L)          1.0707-1
 SiO2(a-qz)      1.6129-2

  * THERMODYNAMIC PROPERTIES FITTED TO 20000.K

  

         NASA-GLENN CHEMICAL EQUILIBRIUM PROGRAM CEA2, FEBRUARY 5, 2004
                   BY  BONNIE MCBRIDE AND SANFORD GORDON
      REFS: NASA RP-1311, PART I, 1994 AND NASA RP-1311, PART II, 1996

 *******************************************************************************

  
 ### CEA analysis performed on Sat 14-Jan-2023 07:56:55
  
 # Problem Type: "Assigned Temperature and Pressure"
  
 prob case=test___________4202 tp
  
 # Pressure (1 value):
 p,atm= 1
 # Temperature (1 value):
 t,k= 400
  
 # You selected the following fuels and oxidizers:
 reac
 fuel C6H5OH,phenol    mole= 90.0000
 fuel Si               mole= 10.0000
  
 # You selected these options for output:
 # short version of output
 output short
 # Proportions of any products will be expressed as Mole Fractions.
 # Heat will be expressed as siunits
 output siunits
 # Trace variable:
 output trace=1e-16
  
 # Input prepared by this script:/var/www/sites/cearun.grc.nasa.gov/cgi-bin/CEARU
 N/prepareInputFile.cgi
  
 ### IMPORTANT:  The following line is the end of your CEA input file!
 end

               THERMODYNAMIC EQUILIBRIUM PROPERTIES AT ASSIGNED

                           TEMPERATURE AND PRESSURE

 CASE = test___________

             REACTANT                       MOLES         ENERGY      TEMP
                                                         KJ/KG-MOL      K
 FUEL        C6H5OH,phenol               90.0000000         0.000      0.000
 FUEL        Si                          10.0000000         0.000      0.000

 O/F=    0.00000  %FUEL=100.000000  R,EQ.RATIO=15.222222  PHI,EQ.RATIO= 0.000000

 THERMODYNAMIC PROPERTIES

 P, BAR            1.0132
 T, K              400.00
 RHO, KG/CU M    1.5672 0
 H, KJ/KG        -3694.24
 U, KJ/KG        -3758.90
 G, KJ/KG        -5480.90
 S, KJ/(KG)(K)     4.4666

 M, (1/n)          51.439
 MW, MOL WT        14.177
 (dLV/dLP)t      -1.00036
 (dLV/dLT)p        1.0083
 Cp, KJ/(KG)(K)    1.4483
 GAMMAs            1.1275
 SON VEL,M/SEC      270.0

 MOLE FRACTIONS

 CH4             1.6420-1
 CH3OH           2.188-14
 *CO             5.6268-9
 *CO2            2.4000-3
 C2H4            1.093-16
 CH3COOH         2.339-14
 C2H6            4.5312-8
 C3H8            3.353-13
 *H2             3.9242-4
 HCOOH           3.650-13
 H2O             1.0860-1
 C(gr)           7.0820-1
 SiO2(a-qz)      1.6200-2

  * THERMODYNAMIC PROPERTIES FITTED TO 20000.K

  

         NASA-GLENN CHEMICAL EQUILIBRIUM PROGRAM CEA2, FEBRUARY 5, 2004
                   BY  BONNIE MCBRIDE AND SANFORD GORDON
      REFS: NASA RP-1311, PART I, 1994 AND NASA RP-1311, PART II, 1996

 *******************************************************************************

  
 ### CEA analysis performed on Sat 14-Jan-2023 07:57:21
  
 # Problem Type: "Assigned Temperature and Pressure"
  
 prob case=test___________4202 tp
  
 # Pressure (1 value):
 p,atm= 1
 # Temperature (1 value):
 t,k= 500
  
 # You selected the following fuels and oxidizers:
 reac
 fuel C6H5OH,phenol    mole= 90.0000
 fuel Si               mole= 10.0000
  
 # You selected these options for output:
 # short version of output
 output short
 # Proportions of any products will be expressed as Mole Fractions.
 # Heat will be expressed as siunits
 output siunits
 # Trace variable:
 output trace=1e-16
  
 # Input prepared by this script:/var/www/sites/cearun.grc.nasa.gov/cgi-bin/CEARU
 N/prepareInputFile.cgi
  
 ### IMPORTANT:  The following line is the end of your CEA input file!
 end

               THERMODYNAMIC EQUILIBRIUM PROPERTIES AT ASSIGNED

                           TEMPERATURE AND PRESSURE

 CASE = test___________

             REACTANT                       MOLES         ENERGY      TEMP
                                                         KJ/KG-MOL      K
 FUEL        C6H5OH,phenol               90.0000000         0.000      0.000
 FUEL        Si                          10.0000000         0.000      0.000

 O/F=    0.00000  %FUEL=100.000000  R,EQ.RATIO=15.222222  PHI,EQ.RATIO= 0.000000

 THERMODYNAMIC PROPERTIES

 P, BAR            1.0132
 T, K              500.00
 RHO, KG/CU M    1.2450 0
 H, KJ/KG        -3530.13
 U, KJ/KG        -3611.52
 G, KJ/KG        -5945.67
 S, KJ/(KG)(K)     4.8311

 M, (1/n)          51.082
 MW, MOL WT        14.196
 (dLV/dLP)t      -1.00382
 (dLV/dLT)p        1.0743
 Cp, KJ/(KG)(K)    1.8795
 GAMMAs            1.1063
 SON VEL,M/SEC      300.1

 MOLE FRACTIONS

 CH4             1.6513-1
 CH3OH           2.106-12
 *CO             1.5082-6
 *CO2            5.0259-3
 C2H4            2.295-13
 CH3CHO,ethanal  4.694-15
 CH3COOH         4.071-13
 C2H6            2.4067-7
 C2H5OH          9.847-16
 C3H6,propylene  1.616-16
 C3H8            4.852-12
 C4H10,isobutane 1.448-16
 *H2             4.2524-3
 HCHO,formaldehy 2.084-14
 HCOOH           1.733-11
 H2O             1.0350-1
 C(gr)           7.0587-1
 SiO2(a-qz)      1.6223-2

  * THERMODYNAMIC PROPERTIES FITTED TO 20000.K

  

         NASA-GLENN CHEMICAL EQUILIBRIUM PROGRAM CEA2, FEBRUARY 5, 2004
                   BY  BONNIE MCBRIDE AND SANFORD GORDON
      REFS: NASA RP-1311, PART I, 1994 AND NASA RP-1311, PART II, 1996

 *******************************************************************************

  
 ### CEA analysis performed on Sat 14-Jan-2023 07:58:31
  
 # Problem Type: "Assigned Temperature and Pressure"
  
 prob case=test___________4202 tp
  
 # Pressure (1 value):
 p,atm= 1
 # Temperature (1 value):
 t,k= 600
  
 # You selected the following fuels and oxidizers:
 reac
 fuel C6H5OH,phenol    mole= 90.0000
 fuel Si               mole= 10.0000
  
 # You selected these options for output:
 # short version of output
 output short
 # Proportions of any products will be expressed as Mole Fractions.
 # Heat will be expressed as siunits
 output siunits
 # Trace variable:
 output trace=1e-16
  
 # Input prepared by this script:/var/www/sites/cearun.grc.nasa.gov/cgi-bin/CEARU
 N/prepareInputFile.cgi
  
 ### IMPORTANT:  The following line is the end of your CEA input file!
 end

               THERMODYNAMIC EQUILIBRIUM PROPERTIES AT ASSIGNED

                           TEMPERATURE AND PRESSURE

 CASE = test___________

             REACTANT                       MOLES         ENERGY      TEMP
                                                         KJ/KG-MOL      K
 FUEL        C6H5OH,phenol               90.0000000         0.000      0.000
 FUEL        Si                          10.0000000         0.000      0.000

 O/F=    0.00000  %FUEL=100.000000  R,EQ.RATIO=15.222222  PHI,EQ.RATIO= 0.000000

 THERMODYNAMIC PROPERTIES

 P, BAR            1.0132
 T, K              600.00
 RHO, KG/CU M    1.0056 0
 H, KJ/KG        -3303.95
 U, KJ/KG        -3404.70
 G, KJ/KG        -6448.61
 S, KJ/(KG)(K)     5.2411

 M, (1/n)          49.512
 MW, MOL WT        14.030
 (dLV/dLP)t      -1.01882
 (dLV/dLT)p        1.3158
 Cp, KJ/(KG)(K)    2.7425
 GAMMAs            1.0955
 SON VEL,M/SEC      332.2

 MOLE FRACTIONS

 CH3             2.918-16
 CH4             1.5736-1
 CH3OH           4.023-11
 *CO             6.1469-5
 *CO2            7.7777-3
 CH2CO,ketene    8.594-16
 C2H4            3.591-11
 CH3CHO,ethanal  3.707-13
 CH3COOH         2.445-12
 C2H6            6.7470-7
 C2H5OH          2.150-14
 C3H6,propylene  3.004-14
 C3H6O,acetone   1.812-15
 C3H8            2.608-11
 C4H10,n-butane  9.465-16
 C4H10,isobutane 1.041-15
 *H2             2.1558-2
 HCHO,formaldehy 3.807-12
 HCOOH           2.094-10
 H2O             9.6616-2
 C(gr)           7.0059-1
 SiO2(a-qz)      1.6033-2

  * THERMODYNAMIC PROPERTIES FITTED TO 20000.K

  

         NASA-GLENN CHEMICAL EQUILIBRIUM PROGRAM CEA2, FEBRUARY 5, 2004
                   BY  BONNIE MCBRIDE AND SANFORD GORDON
      REFS: NASA RP-1311, PART I, 1994 AND NASA RP-1311, PART II, 1996

 *******************************************************************************

  
 ### CEA analysis performed on Sat 14-Jan-2023 07:58:44
  
 # Problem Type: "Assigned Temperature and Pressure"
  
 prob case=test___________4202 tp
  
 # Pressure (1 value):
 p,atm= 1
 # Temperature (1 value):
 t,k= 700
  
 # You selected the following fuels and oxidizers:
 reac
 fuel C6H5OH,phenol    mole= 90.0000
 fuel Si               mole= 10.0000
  
 # You selected these options for output:
 # short version of output
 output short
 # Proportions of any products will be expressed as Mole Fractions.
 # Heat will be expressed as siunits
 output siunits
 # Trace variable:
 output trace=1e-16
  
 # Input prepared by this script:/var/www/sites/cearun.grc.nasa.gov/cgi-bin/CEARU
 N/prepareInputFile.cgi
  
 ### IMPORTANT:  The following line is the end of your CEA input file!
 end

               THERMODYNAMIC EQUILIBRIUM PROPERTIES AT ASSIGNED

                           TEMPERATURE AND PRESSURE

 CASE = test___________

             REACTANT                       MOLES         ENERGY      TEMP
                                                         KJ/KG-MOL      K
 FUEL        C6H5OH,phenol               90.0000000         0.000      0.000
 FUEL        Si                          10.0000000         0.000      0.000

 O/F=    0.00000  %FUEL=100.000000  R,EQ.RATIO=15.222222  PHI,EQ.RATIO= 0.000000

 THERMODYNAMIC PROPERTIES

 P, BAR            1.0132
 T, K              700.00
 RHO, KG/CU M    7.9331-1
 H, KJ/KG        -2958.35
 U, KJ/KG        -3086.08
 G, KJ/KG        -6997.90
 S, KJ/(KG)(K)     5.7708

 M, (1/n)          45.568
 MW, MOL WT        13.478
 (dLV/dLP)t      -1.05416
 (dLV/dLT)p        1.8108
 Cp, KJ/(KG)(K)    4.2908
 GAMMAs            1.0932
 SON VEL,M/SEC      373.7

 MOLE FRACTIONS

 CH3             9.131-14
 CH4             1.3147-1
 CH3OH           2.799-10
 *CO             8.7301-4
 *CO2            1.0522-2
 C2H2,acetylene  6.712-16
 CH2CO,ketene    1.901-13
 C2H4            1.1506-9
 CH3CHO,ethanal  7.150-12
 CH3COOH         7.445-12
 C2H6            1.1219-6
 C2H5OH          1.536-13
 C3H6,propylene  1.005-12
 C3H6O,acetone   2.111-14
 C3H6O,propanal  2.523-16
 C3H8            6.416-11
 C4H8,isobutene  1.676-16
 C4H10,n-butane  3.485-15
 C4H10,isobutane 2.946-15
 *H              3.538-15
 *H2             6.7015-2
 HCHO,formaldehy 1.446-10
 HCOOH           1.1413-9
 H2O             8.5895-2
 C(gr)           6.8883-1
 SiO2(a-qz)      1.5402-2

  * THERMODYNAMIC PROPERTIES FITTED TO 20000.K

  

         NASA-GLENN CHEMICAL EQUILIBRIUM PROGRAM CEA2, FEBRUARY 5, 2004
                   BY  BONNIE MCBRIDE AND SANFORD GORDON
      REFS: NASA RP-1311, PART I, 1994 AND NASA RP-1311, PART II, 1996

 *******************************************************************************

  
 ### CEA analysis performed on Sat 14-Jan-2023 07:58:57
  
 # Problem Type: "Assigned Temperature and Pressure"
  
 prob case=test___________4202 tp
  
 # Pressure (1 value):
 p,atm= 1
 # Temperature (1 value):
 t,k= 800
  
 # You selected the following fuels and oxidizers:
 reac
 fuel C6H5OH,phenol    mole= 90.0000
 fuel Si               mole= 10.0000
  
 # You selected these options for output:
 # short version of output
 output short
 # Proportions of any products will be expressed as Mole Fractions.
 # Heat will be expressed as siunits
 output siunits
 # Trace variable:
 output trace=1e-16
  
 # Input prepared by this script:/var/www/sites/cearun.grc.nasa.gov/cgi-bin/CEARU
 N/prepareInputFile.cgi
  
 ### IMPORTANT:  The following line is the end of your CEA input file!
 end

               THERMODYNAMIC EQUILIBRIUM PROPERTIES AT ASSIGNED

                           TEMPERATURE AND PRESSURE

 CASE = test___________

             REACTANT                       MOLES         ENERGY      TEMP
                                                         KJ/KG-MOL      K
 FUEL        C6H5OH,phenol               90.0000000         0.000      0.000
 FUEL        Si                          10.0000000         0.000      0.000

 O/F=    0.00000  %FUEL=100.000000  R,EQ.RATIO=15.222222  PHI,EQ.RATIO= 0.000000

 THERMODYNAMIC PROPERTIES

 P, BAR            1.0132
 T, K              800.00
 RHO, KG/CU M    6.0015-1
 H, KJ/KG        -2426.23
 U, KJ/KG        -2595.07
 G, KJ/KG        -7608.77
 S, KJ/(KG)(K)     6.4782

 M, (1/n)          39.398
 MW, MOL WT        12.549
 (dLV/dLP)t      -1.09648
 (dLV/dLT)p        2.3540
 Cp, KJ/(KG)(K)    6.4059
 GAMMAs            1.0942
 SON VEL,M/SEC      429.8

 MOLE FRACTIONS

 CH3             5.649-12
 CH4             8.7934-2
 CH3OH           8.870-10
 *CO             6.4017-3
 *CO2            1.2870-2
 COOH            4.086-16
 C2H2,acetylene  1.854-13
 CH2CO,ketene    9.471-12
 C2H4            1.1876-8
 CH3CHO,ethanal  4.886-11
 CH3COOH         1.251-11
 C2H5            3.252-15
 C2H6            1.0819-6
 C2H5OH          4.314-13
 C3H4,allene     1.343-16
 C3H4,propyne    6.009-16
 C3H6,propylene  9.235-12
 C3H6,cyclo-     1.562-15
 C3H6O,acetone   8.496-14
 C3H6O,propanal  2.132-15
 C3H8            7.187-11
 C4H8,1-butene   5.803-16
 C4H8,cis2-buten 5.852-16
 C4H8,tr2-butene 7.001-16
 C4H8,isobutene  1.259-15
 C4H10,n-butane  4.584-15
 C4H10,isobutane 3.189-15
 C6H6            1.085-16
 *H              6.147-13
 HCO             3.180-15
 *H2             1.4307-1
 HCHO,formaldehy 1.9039-9
 HCOOH           3.4489-9
 H2O             6.8238-2
 *OH             1.280-16
 C(gr)           6.6715-1
 SiO2(a-qz)      1.4340-2

  * THERMODYNAMIC PROPERTIES FITTED TO 20000.K

  

         NASA-GLENN CHEMICAL EQUILIBRIUM PROGRAM CEA2, FEBRUARY 5, 2004
                   BY  BONNIE MCBRIDE AND SANFORD GORDON
      REFS: NASA RP-1311, PART I, 1994 AND NASA RP-1311, PART II, 1996

 *******************************************************************************

  
 ### CEA analysis performed on Sat 14-Jan-2023 07:59:28
  
 # Problem Type: "Assigned Temperature and Pressure"
  
 prob case=test___________4202 tp
  
 # Pressure (1 value):
 p,atm= 1
 # Temperature (1 value):
 t,k= 900
  
 # You selected the following fuels and oxidizers:
 reac
 fuel C6H5OH,phenol    mole= 90.0000
 fuel Si               mole= 10.0000
  
 # You selected these options for output:
 # short version of output
 output short
 # Proportions of any products will be expressed as Mole Fractions.
 # Heat will be expressed as siunits
 output siunits
 # Trace variable:
 output trace=1e-16
  
 # Input prepared by this script:/var/www/sites/cearun.grc.nasa.gov/cgi-bin/CEARU
 N/prepareInputFile.cgi
  
 ### IMPORTANT:  The following line is the end of your CEA input file!
 end

               THERMODYNAMIC EQUILIBRIUM PROPERTIES AT ASSIGNED

                           TEMPERATURE AND PRESSURE

 CASE = test___________

             REACTANT                       MOLES         ENERGY      TEMP
                                                         KJ/KG-MOL      K
 FUEL        C6H5OH,phenol               90.0000000         0.000      0.000
 FUEL        Si                          10.0000000         0.000      0.000

 O/F=    0.00000  %FUEL=100.000000  R,EQ.RATIO=15.222222  PHI,EQ.RATIO= 0.000000

 THERMODYNAMIC PROPERTIES

 P, BAR            1.0132
 T, K              900.00
 RHO, KG/CU M    4.4748-1
 H, KJ/KG        -1684.38
 U, KJ/KG        -1910.81
 G, KJ/KG        -8299.20
 S, KJ/(KG)(K)     7.3498

 M, (1/n)          33.047
 MW, MOL WT        11.648
 (dLV/dLP)t      -1.10981
 (dLV/dLT)p        2.5470
 Cp, KJ/(KG)(K)    8.2124
 GAMMAs            1.0976
 SON VEL,M/SEC      498.5

 MOLE FRACTIONS

 CH3             1.096-10
 CH2OH           3.729-16
 CH4             4.5751-2
 CH3OH           1.3381-9
 *CO             2.7068-2
 *CO2            1.1758-2
 COOH            8.738-15
 C2H2,acetylene  1.270-11
 CH2CO,ketene    1.478-10
 CH3CO,acetyl    1.428-15
 C2H4            5.1912-8
 CH3CHO,ethanal  1.343-10
 CH3COOH         1.013-11
 C2H5            4.901-14
 C2H6            6.1948-7
 C2H5OH          4.939-13
 CH3OCH3         1.026-16
 C3H4,allene     6.202-15
 C3H4,propyne    2.500-14
 C3H5,allyl      3.484-16
 C3H6,propylene  3.059-11
 C3H6,cyclo-     8.935-15
 C3H6O,acetone   1.281-13
 C3H6O,propanal  5.770-15
 C3H8            3.847-11
 C4H6,butadiene  6.825-16
 C4H8,1-butene   1.794-15
 C4H8,cis2-buten 1.543-15
 C4H8,tr2-butene 1.806-15
 C4H8,isobutene  2.958-15
 C4H10,n-butane  2.316-15
 C4H10,isobutane 1.387-15
 C6H6            1.021-15
 *H              3.275-11
 HCO             1.975-13
 *H2             2.2530-1
 HCHO,formaldehy 1.0507-8
 HCOOH           5.3227-9
 H2O             4.2593-2
 *OH             7.645-15
 C(gr)           6.3422-1
 SiO2(b-qz)      1.3311-2

  * THERMODYNAMIC PROPERTIES FITTED TO 20000.K

  

         NASA-GLENN CHEMICAL EQUILIBRIUM PROGRAM CEA2, FEBRUARY 5, 2004
                   BY  BONNIE MCBRIDE AND SANFORD GORDON
      REFS: NASA RP-1311, PART I, 1994 AND NASA RP-1311, PART II, 1996

 *******************************************************************************

  
 ### CEA analysis performed on Sat 14-Jan-2023 07:59:40
  
 # Problem Type: "Assigned Temperature and Pressure"
  
 prob case=test___________4202 tp
  
 # Pressure (1 value):
 p,atm= 1
 # Temperature (1 value):
 t,k= 1000
  
 # You selected the following fuels and oxidizers:
 reac
 fuel C6H5OH,phenol    mole= 90.0000
 fuel Si               mole= 10.0000
  
 # You selected these options for output:
 # short version of output
 output short
 # Proportions of any products will be expressed as Mole Fractions.
 # Heat will be expressed as siunits
 output siunits
 # Trace variable:
 output trace=1e-16
  
 # Input prepared by this script:/var/www/sites/cearun.grc.nasa.gov/cgi-bin/CEARU
 N/prepareInputFile.cgi
  
 ### IMPORTANT:  The following line is the end of your CEA input file!
 end

               THERMODYNAMIC EQUILIBRIUM PROPERTIES AT ASSIGNED

                           TEMPERATURE AND PRESSURE

 CASE = test___________

             REACTANT                       MOLES         ENERGY      TEMP
                                                         KJ/KG-MOL      K
 FUEL        C6H5OH,phenol               90.0000000         0.000      0.000
 FUEL        Si                          10.0000000         0.000      0.000

 O/F=    0.00000  %FUEL=100.000000  R,EQ.RATIO=15.222222  PHI,EQ.RATIO= 0.000000

 THERMODYNAMIC PROPERTIES

 P, BAR            1.0132
 T, K             1000.00
 RHO, KG/CU M    3.4871-1
 H, KJ/KG         -890.22
 U, KJ/KG        -1180.79
 G, KJ/KG        -9077.92
 S, KJ/(KG)(K)     8.1877

 M, (1/n)          28.615
 MW, MOL WT        11.104
 (dLV/dLP)t      -1.07710
 (dLV/dLT)p        2.0617
 Cp, KJ/(KG)(K)    6.9627
 GAMMAs            1.1115
 SON VEL,M/SEC      568.3

 MOLE FRACTIONS

 CH3             9.471-10
 CH2OH           3.201-15
 CH4             2.0264-2
 CH3OH           9.673-10
 *CO             6.0324-2
 *CO2            5.3904-3
 COOH            4.632-14
 C2H2,acetylene  3.253-10
 CH2CO,ketene    8.083-10
 C2H3,vinyl      4.575-16
 CH3CO,acetyl    1.355-14
 C2H4            1.2610-7
 CH3CHO,ethanal  1.572-10
 CH3COOH         3.148-12
 C2H5            2.972-13
 C2H6            2.5467-7
 C2H5OH          2.476-13
 C3H3,2-propynl  1.044-16
 C3H4,allene     9.958-14
 C3H4,propyne    3.688-13
 C3H5,allyl      4.067-15
 C3H6,propylene  5.125-11
 C3H6,cyclo-     2.326-14
 C3H6O,acetone   7.972-14
 C3H6O,propanal  5.770-15
 C3H8            1.294-11
 C3O2            9.571-16
 C4H6,butadiene  4.159-15
 C4H8,1-butene   2.453-15
 C4H8,cis2-buten 1.850-15
 C4H8,tr2-butene 2.133-15
 C4H8,isobutene  3.245-15
 C4H10,n-butane  6.427-16
 C4H10,isobutane 3.420-16
 C6H6            3.955-15
 *H              7.495-10
 HCO             3.507-12
 *H2             2.8436-1
 HCHO,formaldehy 2.4937-8
 HCOOH           3.2207-9
 H2O             1.7720-2
 *OH             1.324-13
 C(gr)           5.9925-1
 SiO2(b-qz)      1.2689-2

  * THERMODYNAMIC PROPERTIES FITTED TO 20000.K

  

         NASA-GLENN CHEMICAL EQUILIBRIUM PROGRAM CEA2, FEBRUARY 5, 2004
                   BY  BONNIE MCBRIDE AND SANFORD GORDON
      REFS: NASA RP-1311, PART I, 1994 AND NASA RP-1311, PART II, 1996

 *******************************************************************************

  
 ### CEA analysis performed on Sat 14-Jan-2023 08:00:05
  
 # Problem Type: "Assigned Temperature and Pressure"
  
 prob case=test___________4202 tp
  
 # Pressure (1 value):
 p,atm= 1
 # Temperature (1 value):
 t,k= 1100
  
 # You selected the following fuels and oxidizers:
 reac
 fuel C6H5OH,phenol    mole= 90.0000
 fuel Si               mole= 10.0000
  
 # You selected these options for output:
 # short version of output
 output short
 # Proportions of any products will be expressed as Mole Fractions.
 # Heat will be expressed as siunits
 output siunits
 # Trace variable:
 output trace=1e-16
  
 # Input prepared by this script:/var/www/sites/cearun.grc.nasa.gov/cgi-bin/CEARU
 N/prepareInputFile.cgi
  
 ### IMPORTANT:  The following line is the end of your CEA input file!
 end

               THERMODYNAMIC EQUILIBRIUM PROPERTIES AT ASSIGNED

                           TEMPERATURE AND PRESSURE

 CASE = test___________

             REACTANT                       MOLES         ENERGY      TEMP
                                                         KJ/KG-MOL      K
 FUEL        C6H5OH,phenol               90.0000000         0.000      0.000
 FUEL        Si                          10.0000000         0.000      0.000

 O/F=    0.00000  %FUEL=100.000000  R,EQ.RATIO=15.222222  PHI,EQ.RATIO= 0.000000

 THERMODYNAMIC PROPERTIES

 P, BAR            1.0132
 T, K             1100.00
 RHO, KG/CU M    2.9610-1
 H, KJ/KG         -344.11
 U, KJ/KG         -686.32
 G, KJ/KG        -9925.49
 S, KJ/(KG)(K)     8.7103

 M, (1/n)          26.727
 MW, MOL WT        10.859
 (dLV/dLP)t      -1.03416
 (dLV/dLT)p        1.4199
 Cp, KJ/(KG)(K)    4.1891
 GAMMAs            1.1307
 SON VEL,M/SEC      622.0

 MOLE FRACTIONS

 CH3             4.8127-9
 CH2OH           1.140-14
 CH3O            1.797-16
 CH4             8.7657-3
 CH3OH           4.390-10
 *CO             7.8656-2
 *CO2            1.3622-3
 COOH            8.388-14
 C2H2,acetylene  4.1662-9
 CH2CO,ketene    2.0575-9
 O(CH)2O         1.319-16
 C2H3,vinyl      1.211-14
 CH3CO,acetyl    5.250-14
 C2H4            2.1920-7
 CH3CHO,ethanal  1.060-10
 CH3COOH         5.099-13
 C2H5            1.056-12
 C2H6            9.6821-8
 C2H5OH          7.818-14
 C3H3,2-propynl  4.136-15
 C3H4,allene     8.130-13
 C3H4,propyne    2.806-12
 C3H5,allyl      2.482-14
 C3H6,propylene  6.152-11
 C3H6,cyclo-     4.016-14
 C3H6O,acetone   2.997-14
 C3H6O,propanal  3.210-15
 C3H8            3.911-12
 C3O2            6.668-15
 C4H6,butadiene  1.447-14
 C4H6,1butyne    1.194-16
 C4H6,2butyne    2.995-16
 C4H8,1-butene   2.337-15
 C4H8,cis2-buten 1.578-15
 C4H8,tr2-butene 1.802-15
 C4H8,isobutene  2.580-15
 C4H10,n-butane  1.558-16
 C5H6,1,3cyclo-  1.458-16
 C6H6            9.441-15
 *H              9.1520-9
 HCO             2.418-11
 HCCO            1.093-16
 *H2             3.1203-1
 HCHO,formaldehy 3.2032-8
 HCOOH           9.623-10
 H2O             5.4820-3
 *OH             8.981-13
 SiO             4.086-15
 C(gr)           5.8130-1
 SiO2(b-qz)      1.2409-2

  * THERMODYNAMIC PROPERTIES FITTED TO 20000.K

  

         NASA-GLENN CHEMICAL EQUILIBRIUM PROGRAM CEA2, FEBRUARY 5, 2004
                   BY  BONNIE MCBRIDE AND SANFORD GORDON
      REFS: NASA RP-1311, PART I, 1994 AND NASA RP-1311, PART II, 1996

 *******************************************************************************

  
 ### CEA analysis performed on Sat 14-Jan-2023 08:01:38
  
 # Problem Type: "Assigned Temperature and Pressure"
  
 prob case=test___________4202 tp
  
 # Pressure (1 value):
 p,atm= 1
 # Temperature (1 value):
 t,k= 1200
  
 # You selected the following fuels and oxidizers:
 reac
 fuel C6H5OH,phenol    mole= 90.0000
 fuel Si               mole= 10.0000
  
 # You selected these options for output:
 # short version of output
 output short
 # Proportions of any products will be expressed as Mole Fractions.
 # Heat will be expressed as siunits
 output siunits
 # Trace variable:
 output trace=1e-16
  
 # Input prepared by this script:/var/www/sites/cearun.grc.nasa.gov/cgi-bin/CEARU
 N/prepareInputFile.cgi
  
 ### IMPORTANT:  The following line is the end of your CEA input file!
 end

               THERMODYNAMIC EQUILIBRIUM PROPERTIES AT ASSIGNED

                           TEMPERATURE AND PRESSURE

 CASE = test___________

             REACTANT                       MOLES         ENERGY      TEMP
                                                         KJ/KG-MOL      K
 FUEL        C6H5OH,phenol               90.0000000         0.000      0.000
 FUEL        Si                          10.0000000         0.000      0.000

 O/F=    0.00000  %FUEL=100.000000  R,EQ.RATIO=15.222222  PHI,EQ.RATIO= 0.000000

 THERMODYNAMIC PROPERTIES

 P, BAR            1.0132
 T, K             1200.00
 RHO, KG/CU M    2.6525-1
 H, KJ/KG          8.3943
 U, KJ/KG         -373.60
 G, KJ/KG        -10812.9
 S, KJ/(KG)(K)     9.0177

 M, (1/n)          26.119
 MW, MOL WT        10.758
 (dLV/dLP)t      -1.01418
 (dLV/dLT)p        1.1525
 Cp, KJ/(KG)(K)    3.0827
 GAMMAs            1.1402
 SON VEL,M/SEC      660.0

 MOLE FRACTIONS

 CH2             2.339-15
 CH3             1.7523-8
 CH2OH           2.714-14
 CH3O            5.866-16
 CH4             4.0584-3
 CH3OH           1.856-10
 *CO             8.3684-2
 *CO2            3.2575-4
 COOH            1.024-13
 C2H2,acetylene  3.3167-8
 C2H2,vinylidene 2.133-15
 CH2CO,ketene    3.7455-9
 O(CH)2O         1.644-16
 C2H3,vinyl      1.740-13
 CH3CO,acetyl    1.344-13
 C2H4            3.2285-7
 CH3CHO,ethanal  6.239-11
 CH3COOH         8.112-14
 C2H5            2.789-12
 C2H6            3.9340-8
 C2H5OH          2.397-14
 C3H3,2-propynl  8.333-14
 C3H4,allene     4.350-12
 C3H4,propyne    1.414-11
 C3H4,cyclo-     6.210-16
 C3H5,allyl      1.034-13
 C3H6,propylene  6.518-11
 C3H6,cyclo-     5.774-14
 C3H6O,acetone   1.061-14
 C3H6O,propanal  1.580-15
 C3H7,i-propyl   1.081-16
 C3H8            1.287-12
 C3O2            2.529-14
 C4H2,butadiyne  1.251-15
 C4H6,butadiene  3.745-14
 C4H6,1butyne    4.909-16
 C4H6,2butyne    9.952-16
 C4H8,1-butene   2.001-15
 C4H8,cis2-buten 1.229-15
 C4H8,tr2-butene 1.394-15
 C4H8,isobutene  1.899-15
 C5H6,1,3cyclo-  4.462-16
 C6H6            1.776-14
 *H              7.1466-8
 HCO             1.020-10
 HCCO            1.611-15
 *H2             3.2210-1
 HCHO,formaldehy 3.2958-8
 HCOOH           2.606-10
 H2O             1.7230-3
 *OH             3.753-12
 SiO             2.046-12
 C(gr)           5.7581-1
 SiO2(b-qz)      1.2294-2

  * THERMODYNAMIC PROPERTIES FITTED TO 20000.K

  

         NASA-GLENN CHEMICAL EQUILIBRIUM PROGRAM CEA2, FEBRUARY 5, 2004
                   BY  BONNIE MCBRIDE AND SANFORD GORDON
      REFS: NASA RP-1311, PART I, 1994 AND NASA RP-1311, PART II, 1996

 *******************************************************************************

  
 ### CEA analysis performed on Sat 14-Jan-2023 08:01:50
  
 # Problem Type: "Assigned Temperature and Pressure"
  
 prob case=test___________4202 tp
  
 # Pressure (1 value):
 p,atm= 1
 # Temperature (1 value):
 t,k= 1300
  
 # You selected the following fuels and oxidizers:
 reac
 fuel C6H5OH,phenol    mole= 90.0000
 fuel Si               mole= 10.0000
  
 # You selected these options for output:
 # short version of output
 output short
 # Proportions of any products will be expressed as Mole Fractions.
 # Heat will be expressed as siunits
 output siunits
 # Trace variable:
 output trace=1e-16
  
 # Input prepared by this script:/var/www/sites/cearun.grc.nasa.gov/cgi-bin/CEARU
 N/prepareInputFile.cgi
  
 ### IMPORTANT:  The following line is the end of your CEA input file!
 end

               THERMODYNAMIC EQUILIBRIUM PROPERTIES AT ASSIGNED

                           TEMPERATURE AND PRESSURE

 CASE = test___________

             REACTANT                       MOLES         ENERGY      TEMP
                                                         KJ/KG-MOL      K
 FUEL        C6H5OH,phenol               90.0000000         0.000      0.000
 FUEL        Si                          10.0000000         0.000      0.000

 O/F=    0.00000  %FUEL=100.000000  R,EQ.RATIO=15.222222  PHI,EQ.RATIO= 0.000000

 THERMODYNAMIC PROPERTIES

 P, BAR            1.0132
 T, K             1300.00
 RHO, KG/CU M    2.4289-1
 H, KJ/KG          300.59
 U, KJ/KG         -116.57
 G, KJ/KG        -11726.8
 S, KJ/(KG)(K)     9.2519

 M, (1/n)          25.910
 MW, MOL WT        10.716
 (dLV/dLP)t      -1.00657
 (dLV/dLT)p        1.0626
 Cp, KJ/(KG)(K)    2.7748
 GAMMAs            1.1416
 SON VEL,M/SEC      690.1

 MOLE FRACTIONS

 CH2             4.588-14
 CH3             5.1069-8
 CH2OH           5.384-14
 CH3O            1.529-15
 CH4             2.0624-3
 CH3OH           8.502-11
 *CO             8.4916-2
 *CO2            9.1444-5
 COOH            1.137-13
 C2H             1.043-16
 C2H2,acetylene  1.8829-7
 C2H2,vinylidene 4.954-14
 CH2CO,ketene    5.9478-9
 O(CH)2O         1.857-16
 C2H3,vinyl      1.618-12
 CH3CO,acetyl    2.845-13
 C2H4            4.3589-7
 CH3CHO,ethanal  3.785-11
 CH3COOH         1.598-14
 C2H5            6.149-12
 C2H6            1.7741-8
 C2H5OH          8.320-15
 C2O             3.410-16
 C3H3,2-propynl  1.033-12
 C3H4,allene     1.750-11
 C3H4,propyne    5.407-11
 C3H4,cyclo-     4.815-15
 C3H5,allyl      3.361-13
 C3H6,propylene  6.612-11
 C3H6,cyclo-     7.603-14
 C3H6O,acetone   4.152-15
 C3H6O,propanal  8.195-16
 C3H7,n-propyl   1.536-16
 C3H7,i-propyl   1.850-16
 C3H8            4.828-13
 C3O2            7.355-14
 C4H2,butadiyne  4.033-14
 C4H6,butadiene  8.122-14
 C4H6,1butyne    1.569-15
 C4H6,2butyne    2.653-15
 C4H8,1-butene   1.684-15
 C4H8,cis2-buten 9.540-16
 C4H8,tr2-butene 1.077-15
 C4H8,isobutene  1.406-15
 C5H6,1,3cyclo-  1.114-15
 C6H6            2.934-14
 *H              4.0383-7
 HCO             3.309-10
 HCCO            1.507-14
 *H2             3.2588-1
 HCHO,formaldehy 3.2292-8
 HCOOH           8.110-11
 H2O             6.1897-4
 *OH             1.211-11
 SiH4            3.877-15
 SiO             3.889-10
 SiO2            2.663-15
 C(gr)           5.7418-1
 SiO2(b-crt)     1.2245-2

  * THERMODYNAMIC PROPERTIES FITTED TO 20000.K

  

         NASA-GLENN CHEMICAL EQUILIBRIUM PROGRAM CEA2, FEBRUARY 5, 2004
                   BY  BONNIE MCBRIDE AND SANFORD GORDON
      REFS: NASA RP-1311, PART I, 1994 AND NASA RP-1311, PART II, 1996

 *******************************************************************************

  
 ### CEA analysis performed on Sat 14-Jan-2023 08:02:01
  
 # Problem Type: "Assigned Temperature and Pressure"
  
 prob case=test___________4202 tp
  
 # Pressure (1 value):
 p,atm= 1
 # Temperature (1 value):
 t,k= 1400
  
 # You selected the following fuels and oxidizers:
 reac
 fuel C6H5OH,phenol    mole= 90.0000
 fuel Si               mole= 10.0000
  
 # You selected these options for output:
 # short version of output
 output short
 # Proportions of any products will be expressed as Mole Fractions.
 # Heat will be expressed as siunits
 output siunits
 # Trace variable:
 output trace=1e-16
  
 # Input prepared by this script:/var/www/sites/cearun.grc.nasa.gov/cgi-bin/CEARU
 N/prepareInputFile.cgi
  
 ### IMPORTANT:  The following line is the end of your CEA input file!
 end

               THERMODYNAMIC EQUILIBRIUM PROPERTIES AT ASSIGNED

                           TEMPERATURE AND PRESSURE

 CASE = test___________

             REACTANT                       MOLES         ENERGY      TEMP
                                                         KJ/KG-MOL      K
 FUEL        C6H5OH,phenol               90.0000000         0.000      0.000
 FUEL        Si                          10.0000000         0.000      0.000

 O/F=    0.00000  %FUEL=100.000000  R,EQ.RATIO=15.222222  PHI,EQ.RATIO= 0.000000

 THERMODYNAMIC PROPERTIES

 P, BAR            1.0132
 T, K             1400.00
 RHO, KG/CU M    2.2481-1
 H, KJ/KG          573.20
 U, KJ/KG          122.49
 G, KJ/KG        -12662.3
 S, KJ/(KG)(K)     9.4539

 M, (1/n)          25.827
 MW, MOL WT        10.696
 (dLV/dLP)t      -1.00342
 (dLV/dLT)p        1.0294
 Cp, KJ/(KG)(K)    2.6965
 GAMMAs            1.1404
 SON VEL,M/SEC      716.9

 MOLE FRACTIONS

 CH2             5.832-13
 CH3             1.2646-7
 CH2OH           9.570-14
 CH3O            3.449-15
 CH4             1.1443-3
 CH3OH           4.297-11
 *CO             8.5246-2
 *CO2            3.0538-5
 COOH            1.232-13
 C2H             4.352-15
 C2H2,acetylene  8.2731-7
 C2H2,vinylidene 7.257-13
 CH2CO,ketene    8.7503-9
 O(CH)2O         2.044-16
 C2H3,vinyl      1.082-11
 CH3CO,acetyl    5.357-13
 C2H4            5.5756-7
 CH3CHO,ethanal  2.436-11
 CH3COOH         3.938-15
 C2H5            1.196-11
 C2H6            8.8508-9
 C2H5OH          3.314-15
 C2O             4.967-15
 C3H3,2-propynl  8.835-12
 C3H4,allene     5.711-11
 C3H4,propyne    1.687-10
 C3H4,cyclo-     2.757-14
 C3H5,allyl      9.141-13
 C3H6,propylene  6.608-11
 C3H6,cyclo-     9.522-14
 C3H6O,acetone   1.831-15
 C3H6O,propanal  4.608-16
 C3H7,n-propyl   2.590-16
 C3H7,i-propyl   2.886-16
 C3H8            2.054-13
 C3O2            1.821-13
 C4H2,butadiyne  7.845-13
 C4H6,butadiene  1.562-13
 C4H6,1butyne    4.195-15
 C4H6,2butyne    6.063-15
 C4H6,cyclo-     1.302-16
 C4H8,1-butene   1.433-15
 C4H8,cis2-buten 7.558-16
 C4H8,tr2-butene 8.511-16
 C4H8,isobutene  1.071-15
 C5H6,1,3cyclo-  2.413-15
 C6H6            4.456-14
 *H              1.7814-6
 HCO             8.988-10
 HCCO            1.015-13
 *H2             3.2748-1
 HCHO,formaldehy 3.1409-8
 HCOOH           2.965-11
 H2O             2.5476-4
 *O              1.358-16
 *OH             3.285-11
 *Si             5.974-16
 SiH             5.329-15
 SiH2            1.317-14
 SiH3            3.542-15
 SiH4            3.845-13
 SiO             3.4533-8
 SiO2            1.190-13
 C(gr)           5.7362-1
 SiO2(b-crt)     1.2223-2

  * THERMODYNAMIC PROPERTIES FITTED TO 20000.K

  

         NASA-GLENN CHEMICAL EQUILIBRIUM PROGRAM CEA2, FEBRUARY 5, 2004
                   BY  BONNIE MCBRIDE AND SANFORD GORDON
      REFS: NASA RP-1311, PART I, 1994 AND NASA RP-1311, PART II, 1996

 *******************************************************************************

  
 ### CEA analysis performed on Sat 14-Jan-2023 08:02:19
  
 # Problem Type: "Assigned Temperature and Pressure"
  
 prob case=test___________4202 tp
  
 # Pressure (1 value):
 p,atm= 1
 # Temperature (1 value):
 t,k= 1500
  
 # You selected the following fuels and oxidizers:
 reac
 fuel C6H5OH,phenol    mole= 90.0000
 fuel Si               mole= 10.0000
  
 # You selected these options for output:
 # short version of output
 output short
 # Proportions of any products will be expressed as Mole Fractions.
 # Heat will be expressed as siunits
 output siunits
 # Trace variable:
 output trace=1e-16
  
 # Input prepared by this script:/var/www/sites/cearun.grc.nasa.gov/cgi-bin/CEARU
 N/prepareInputFile.cgi
  
 ### IMPORTANT:  The following line is the end of your CEA input file!
 end

               THERMODYNAMIC EQUILIBRIUM PROPERTIES AT ASSIGNED

                           TEMPERATURE AND PRESSURE

 CASE = test___________

             REACTANT                       MOLES         ENERGY      TEMP
                                                         KJ/KG-MOL      K
 FUEL        C6H5OH,phenol               90.0000000         0.000      0.000
 FUEL        Si                          10.0000000         0.000      0.000

 O/F=    0.00000  %FUEL=100.000000  R,EQ.RATIO=15.222222  PHI,EQ.RATIO= 0.000000

 THERMODYNAMIC PROPERTIES

 P, BAR            1.0132
 T, K             1500.00
 RHO, KG/CU M    2.0951-1
 H, KJ/KG          842.19
 U, KJ/KG          358.57
 G, KJ/KG        -13617.1
 S, KJ/(KG)(K)     9.6395

 M, (1/n)          25.788
 MW, MOL WT        10.686
 (dLV/dLP)t      -1.00197
 (dLV/dLT)p        1.0159
 Cp, KJ/(KG)(K)    2.6914
 GAMMAs            1.1385
 SON VEL,M/SEC      742.0

 MOLE FRACTIONS

 *CH             4.095-16
 CH2             5.255-12
 CH3             2.7602-7
 CH2OH           1.571-13
 CH3O            6.990-15
 CH4             6.8481-4
 CH3OH           2.374-11
 *CO             8.5343-2
 *CO2            1.1837-5
 COOH            1.324-13
 C2H             1.100-13
 C2H2,acetylene  2.9709-6
 C2H2,vinylidene 7.379-12
 CH2CO,ketene    1.2202-8
 O(CH)2O         2.228-16
 C2H3,vinyl      5.581-11
 CH3CO,acetyl    9.268-13
 C2H4            6.8663-7
 C2H4O,ethylen-o 1.253-16
 CH3CHO,ethanal  1.659-11
 CH3COOH         1.177-15
 C2H5            2.116-11
 C2H6            4.8215-9
 C2H5OH          1.490-15
 C2O             5.055-14
 C3H3,1-propynl  1.179-15
 C3H3,2-propynl  5.645-11
 C3H4,allene     1.584-10
 C3H4,propyne    4.499-10
 C3H4,cyclo-     1.245-13
 C3H5,allyl      2.168-12
 C3H6,propylene  6.571-11
 C3H6,cyclo-     1.153-13
 C3H6O,acetone   8.987-16
 C3H6O,propanal  2.796-16
 C3H7,n-propyl   4.053-16
 C3H7,i-propyl   4.218-16
 C3H8            9.754-14
 C3O2            4.003-13
 C4H2,butadiyne  1.022-11
 C4H6,butadiene  2.746-13
 C4H6,1butyne    9.790-15
 C4H6,2butyne    1.234-14
 C4H6,cyclo-     2.857-16
 C4H8,1-butene   1.239-15
 C4H8,cis2-buten 6.142-16
 C4H8,tr2-butene 6.905-16
 C4H8,isobutene  8.422-16
 C5H6,1,3cyclo-  4.701-15
 C6H6            6.373-14
 *H              6.4568-6
 HCO             2.1321-9
 HCCO            5.291-13
 *H2             3.2823-1
 HCHO,formaldehy 3.0609-8
 HCOOH           1.248-11
 H2O             1.1782-4
 *O              1.125-15
 *OH             7.799-11
 *Si             3.533-13
 SiC2            9.896-16
 SiH             1.939-12
 SiH2            2.760-12
 SiH3            4.996-13
 SiH4            2.043-11
 SiO             1.6643-6
 SiO2            3.179-12
 C(gr)           5.7339-1
 SiO2(b-crt)     1.2210-2

  * THERMODYNAMIC PROPERTIES FITTED TO 20000.K

  

         NASA-GLENN CHEMICAL EQUILIBRIUM PROGRAM CEA2, FEBRUARY 5, 2004
                   BY  BONNIE MCBRIDE AND SANFORD GORDON
      REFS: NASA RP-1311, PART I, 1994 AND NASA RP-1311, PART II, 1996

 *******************************************************************************

  
 ### CEA analysis performed on Sat 14-Jan-2023 08:02:32
  
 # Problem Type: "Assigned Temperature and Pressure"
  
 prob case=test___________4202 tp
  
 # Pressure (1 value):
 p,atm= 1
 # Temperature (1 value):
 t,k= 1600
  
 # You selected the following fuels and oxidizers:
 reac
 fuel C6H5OH,phenol    mole= 90.0000
 fuel Si               mole= 10.0000
  
 # You selected these options for output:
 # short version of output
 output short
 # Proportions of any products will be expressed as Mole Fractions.
 # Heat will be expressed as siunits
 output siunits
 # Trace variable:
 output trace=1e-16
  
 # Input prepared by this script:/var/www/sites/cearun.grc.nasa.gov/cgi-bin/CEARU
 N/prepareInputFile.cgi
  
 ### IMPORTANT:  The following line is the end of your CEA input file!
 end

               THERMODYNAMIC EQUILIBRIUM PROPERTIES AT ASSIGNED

                           TEMPERATURE AND PRESSURE

 CASE = test___________

             REACTANT                       MOLES         ENERGY      TEMP
                                                         KJ/KG-MOL      K
 FUEL        C6H5OH,phenol               90.0000000         0.000      0.000
 FUEL        Si                          10.0000000         0.000      0.000

 O/F=    0.00000  %FUEL=100.000000  R,EQ.RATIO=15.222222  PHI,EQ.RATIO= 0.000000

 THERMODYNAMIC PROPERTIES

 P, BAR            1.0132
 T, K             1600.00
 RHO, KG/CU M    1.9622-1
 H, KJ/KG         1114.60
 U, KJ/KG          598.22
 G, KJ/KG        -14589.9
 S, KJ/(KG)(K)     9.8153

 M, (1/n)          25.762
 MW, MOL WT        10.681
 (dLV/dLP)t      -1.00169
 (dLV/dLT)p        1.0210
 Cp, KJ/(KG)(K)    2.8010
 GAMMAs            1.1343
 SON VEL,M/SEC      765.3

 MOLE FRACTIONS

 *C              2.575-16
 *CH             8.044-15
 CH2             3.585-11
 CH3             5.4463-7
 CH2OH           2.423-13
 CH3O            1.302-14
 CH4             4.3677-4
 CH3OH           1.413-11
 *CO             8.5420-2
 *CO2            5.1953-6
 COOH            1.418-13
 C2H             1.851-12
 C2H2,acetylene  9.0668-6
 C2H2,vinylidene 5.585-11
 CH2CO,ketene    1.6332-8
 O(CH)2O         2.418-16
 C2H3,vinyl      2.335-10
 CH3CO,acetyl    1.501-12
 C2H4            8.2146-7
 C2H4O,ethylen-o 1.595-16
 CH3CHO,ethanal  1.188-11
 CH3COOH         4.129-16
 C2H5            3.475-11
 C2H6            2.8282-9
 C2H5OH          7.424-16
 C2O             3.851-13
 C3H3,1-propynl  1.034-14
 C3H3,2-propynl  2.848-10
 C3H4,allene     3.855-10
 C3H4,propyne    1.0578-9
 C3H4,cyclo-     4.642-13
 C3H5,allyl      4.611-12
 C3H6,propylene  6.524-11
 C3H6,cyclo-     1.363-13
 C3H6O,acetone   4.829-16
 C3H6O,propanal  1.810-16
 C3H7,n-propyl   5.983-16
 C3H7,i-propyl   5.861-16
 C3H8            5.079-14
 C3O2            8.014-13
 C4H2,butadiyne  9.616-11
 C4H4,1,3-cyclo- 1.842-16
 C4H6,butadiene  4.501-13
 C4H6,1butyne    2.050-14
 C4H6,2butyne    2.290-14
 C4H6,cyclo-     5.678-16
 C4H8,1-butene   1.090-15
 C4H8,cis2-buten 5.113-16
 C4H8,tr2-butene 5.742-16
 C4H8,isobutene  6.812-16
 C5H6,1,3cyclo-  8.420-15
 C6H2            1.091-15
 C6H6            8.702-14
 *H              1.9962-5
 HCO             4.5407-9
 HCCO            2.244-12
 *H2             3.2860-1
 HCHO,formaldehy 2.9951-8
 HCOOH           5.902-12
 H2O             6.0059-5
 *O              7.184-15
 *OH             1.666-10
 *Si             9.278-11
 SiC2            6.262-13
 SiH             3.324-10
 SiH2            2.928-10
 SiH3            3.747-11
 SiH4            6.533-10
 SiO             4.8812-5
 SiO2            5.598-11
 Si2             2.479-15
 Si2C            1.348-13
 C(gr)           5.7324-1
 SiO2(b-crt)     1.2157-2

  * THERMODYNAMIC PROPERTIES FITTED TO 20000.K

  

         NASA-GLENN CHEMICAL EQUILIBRIUM PROGRAM CEA2, FEBRUARY 5, 2004
                   BY  BONNIE MCBRIDE AND SANFORD GORDON
      REFS: NASA RP-1311, PART I, 1994 AND NASA RP-1311, PART II, 1996

 *******************************************************************************

  
 ### CEA analysis performed on Sat 14-Jan-2023 08:02:42
  
 # Problem Type: "Assigned Temperature and Pressure"
  
 prob case=test___________4202 tp
  
 # Pressure (1 value):
 p,atm= 1
 # Temperature (1 value):
 t,k= 1700
  
 # You selected the following fuels and oxidizers:
 reac
 fuel C6H5OH,phenol    mole= 90.0000
 fuel Si               mole= 10.0000
  
 # You selected these options for output:
 # short version of output
 output short
 # Proportions of any products will be expressed as Mole Fractions.
 # Heat will be expressed as siunits
 output siunits
 # Trace variable:
 output trace=1e-16
  
 # Input prepared by this script:/var/www/sites/cearun.grc.nasa.gov/cgi-bin/CEARU
 N/prepareInputFile.cgi
  
 ### IMPORTANT:  The following line is the end of your CEA input file!
 end

               THERMODYNAMIC EQUILIBRIUM PROPERTIES AT ASSIGNED

                           TEMPERATURE AND PRESSURE

 CASE = test___________

             REACTANT                       MOLES         ENERGY      TEMP
                                                         KJ/KG-MOL      K
 FUEL        C6H5OH,phenol               90.0000000         0.000      0.000
 FUEL        Si                          10.0000000         0.000      0.000

 O/F=    0.00000  %FUEL=100.000000  R,EQ.RATIO=15.222222  PHI,EQ.RATIO= 0.000000

 THERMODYNAMIC PROPERTIES

 P, BAR            1.0132
 T, K             1700.00
 RHO, KG/CU M    1.7437-1
 H, KJ/KG         2061.16
 U, KJ/KG         1480.07
 G, KJ/KG        -15593.9
 S, KJ/(KG)(K)    10.3853

 M, (1/n)          24.324
 MW, MOL WT        10.805
 (dLV/dLP)t      -1.00077
 (dLV/dLT)p        1.0060
 Cp, KJ/(KG)(K)    2.7163
 GAMMAs            1.1449
 SON VEL,M/SEC      815.7

 MOLE FRACTIONS

 *C              6.599-15
 *CH             1.157-13
 CH2             1.970-10
 CH3             9.7359-7
 CH2OH           4.227-13
 CH3O            2.690-14
 CH4             2.8107-4
 CH3OH           1.036-11
 *CO             1.1065-1
 *CO2            3.9512-6
 COOH            2.302-13
 *C2             1.577-16
 C2H             2.322-11
 C2H2,acetylene  2.4504-5
 C2H2,vinylidene 3.357-10
 CH2CO,ketene    2.5861-8
 O(CH)2O         3.867-16
 C2H3,vinyl      8.094-10
 CH3CO,acetyl    2.737-12
 C2H4            9.1863-7
 C2H4O,ethylen-o 2.290-16
 CH3CHO,ethanal  1.024-11
 CH3COOH         2.310-16
 C2H5            4.998-11
 C2H6            1.5956-9
 C2H5OH          4.400-16
 C2O             2.992-12
 *C3             1.966-15
 C3H3,1-propynl  6.883-14
 C3H3,2-propynl  1.1652-9
 C3H4,allene     8.067-10
 C3H4,propyne    2.1465-9
 C3H4,cyclo-     1.416-12
 C3H5,allyl      8.342-12
 C3H6,propylene  5.855-11
 C3H6,cyclo-     1.429-13
 C3H6O,acetone   3.058-16
 C3H6O,propanal  1.353-16
 C3H7,n-propyl   7.408-16
 C3H7,i-propyl   6.876-16
 C3H8            2.441-14
 C3O2            2.324-12
 C4H2,butadiyne  7.012-10
 C4H4,1,3-cyclo- 9.057-16
 C4H6,butadiene  6.302-13
 C4H6,1butyne    3.554-14
 C4H6,2butyne    3.567-14
 C4H6,cyclo-     9.413-16
 C4H8,1-butene   8.319-16
 C4H8,cis2-buten 3.713-16
 C4H8,tr2-butene 4.169-16
 C4H8,isobutene  4.826-16
 C5H6,1,3cyclo-  1.273-14
 C6H2            2.135-14
 C6H5,phenyl     1.066-16
 C6H6            1.035-13
 *H              5.6354-5
 HCO             1.1136-8
 HCCO            1.010-11
 *H2             3.3273-1
 HCHO,formaldehy 3.5986-8
 HCOOH           4.546-12
 H2O             4.0594-5
 *O              4.796-14
 *OH             4.104-10
 *Si             4.6244-9
 SiC             3.284-15
 SiC2            6.753-11
 SiH             1.1051-8
 SiH2            6.2085-9
 SiH3            5.689-10
 SiH4            4.5517-9
 SiO             4.2587-4
 SiO2            3.785-10
 Si2             1.362-12
 Si2C            6.463-11
 Si3             6.948-15
 C(gr)           5.4386-1
 SiC(b)          1.1922-2

  * THERMODYNAMIC PROPERTIES FITTED TO 20000.K

  

         NASA-GLENN CHEMICAL EQUILIBRIUM PROGRAM CEA2, FEBRUARY 5, 2004
                   BY  BONNIE MCBRIDE AND SANFORD GORDON
      REFS: NASA RP-1311, PART I, 1994 AND NASA RP-1311, PART II, 1996

 *******************************************************************************

  
 ### CEA analysis performed on Sat 14-Jan-2023 08:02:57
  
 # Problem Type: "Assigned Temperature and Pressure"
  
 prob case=test___________4202 tp
  
 # Pressure (1 value):
 p,atm= 1
 # Temperature (1 value):
 t,k= 1800
  
 # You selected the following fuels and oxidizers:
 reac
 fuel C6H5OH,phenol    mole= 90.0000
 fuel Si               mole= 10.0000
  
 # You selected these options for output:
 # short version of output
 output short
 # Proportions of any products will be expressed as Mole Fractions.
 # Heat will be expressed as siunits
 output siunits
 # Trace variable:
 output trace=1e-16
  
 # Input prepared by this script:/var/www/sites/cearun.grc.nasa.gov/cgi-bin/CEARU
 N/prepareInputFile.cgi
  
 ### IMPORTANT:  The following line is the end of your CEA input file!
 end

               THERMODYNAMIC EQUILIBRIUM PROPERTIES AT ASSIGNED

                           TEMPERATURE AND PRESSURE

 CASE = test___________

             REACTANT                       MOLES         ENERGY      TEMP
                                                         KJ/KG-MOL      K
 FUEL        C6H5OH,phenol               90.0000000         0.000      0.000
 FUEL        Si                          10.0000000         0.000      0.000

 O/F=    0.00000  %FUEL=100.000000  R,EQ.RATIO=15.222222  PHI,EQ.RATIO= 0.000000

 THERMODYNAMIC PROPERTIES

 P, BAR            1.0132
 T, K             1800.00
 RHO, KG/CU M    1.6463-1
 H, KJ/KG         2334.78
 U, KJ/KG         1719.31
 G, KJ/KG        -16640.3
 S, KJ/(KG)(K)    10.5417

 M, (1/n)          24.317
 MW, MOL WT        10.802
 (dLV/dLP)t      -1.00058
 (dLV/dLT)p        1.0055
 Cp, KJ/(KG)(K)    2.7582
 GAMMAs            1.1425
 SON VEL,M/SEC      838.6

 MOLE FRACTIONS

 *C              1.108-13
 *CH             1.191-12
 CH2             8.839-10
 CH3             1.6525-6
 CH2OH           5.937-13
 CH3O            4.406-14
 CH4             1.9792-4
 CH3OH           6.914-12
 *CO             1.1049-1
 *CO2            2.0827-6
 COOH            2.442-13
 *C2             4.068-15
 C2H             2.117-10
 C2H2,acetylene  5.8562-5
 C2H2,vinylidene 1.6290-9
 CH2CO,ketene    3.2500-8
 O(CH)2O         4.154-16
 C2H3,vinyl      2.4733-9
 CH3CO,acetyl    4.007-12
 C2H4            1.0547-6
 C2H4O,ethylen-o 2.782-16
 CH3CHO,ethanal  7.902-12
 CH3COOH         1.030-16
 C2H5            7.361-11
 C2H6            1.0505-9
 C2H5OH          2.561-16
 C2O             1.469-11
 *C3             5.022-14
 C3H3,1-propynl  3.753-13
 C3H3,2-propynl  4.1246-9
 C3H4,allene     1.6164-9
 C3H4,propyne    4.1834-9
 C3H4,cyclo-     3.965-12
 C3H5,allyl      1.509-11
 C3H6,propylene  5.820-11
 C3H6,cyclo-     1.633-13
 C3H6O,acetone   1.887-16
 C3H7,n-propyl   1.006-15
 C3H7,i-propyl   8.894-16
 C3H8            1.468-14
 C3O2            4.021-12
 C4H2,butadiyne  4.0446-9
 C4H4,1,3-cyclo- 3.877-15
 C4H6,butadiene  9.331-13
 C4H6,1butyne    6.342-14
 C4H6,2butyne    5.787-14
 C4H6,cyclo-     1.617-15
 C4H8,1-butene   7.541-16
 C4H8,cis2-buten 3.220-16
 C4H8,tr2-butene 3.616-16
 C4H8,isobutene  4.095-16
 C5H6,1,3cyclo-  2.014-14
 C6H2            2.960-13
 C6H5,phenyl     3.736-16
 C6H6            1.322-13
 *H              1.3696-4
 HCO             2.0121-8
 HCCO            3.133-11
 *H2             3.3274-1
 HCHO,formaldehy 3.5401-8
 HCOOH           2.557-12
 H2O             2.3950-5
 *O              2.065-13
 *OH             7.457-10
 *Si             3.5218-8
 SiC             7.464-14
 SiC2            1.0175-9
 SiH             6.0191-8
 SiH2            2.3311-8
 SiH3            1.6274-9
 SiH4            6.6935-9
 SiO             5.8210-4
 SiO2            3.495-10
 Si2             2.194-11
 Si2C            9.194-10
 Si3             1.758-13
 C(gr)           5.4401-1
 SiC(b)          1.1762-2

  * THERMODYNAMIC PROPERTIES FITTED TO 20000.K

  

         NASA-GLENN CHEMICAL EQUILIBRIUM PROGRAM CEA2, FEBRUARY 5, 2004
                   BY  BONNIE MCBRIDE AND SANFORD GORDON
      REFS: NASA RP-1311, PART I, 1994 AND NASA RP-1311, PART II, 1996

 *******************************************************************************

  
 ### CEA analysis performed on Sat 14-Jan-2023 08:35:09
  
 # Problem Type: "Assigned Temperature and Pressure"
  
 prob case=test___________4202 tp
  
 # Pressure (1 value):
 p,atm= 1
 # Temperature (1 value):
 t,k= 1900
  
 # You selected the following fuels and oxidizers:
 reac
 fuel C6H5OH,phenol    mole= 90.0000
 fuel Si               mole= 10.0000
  
 # You selected these options for output:
 # short version of output
 output short
 # Proportions of any products will be expressed as Mole Fractions.
 # Heat will be expressed as siunits
 output siunits
 # Trace variable:
 output trace=1e-16
  
 # Input prepared by this script:/var/www/sites/cearun.grc.nasa.gov/cgi-bin/CEARU
 N/prepareInputFile.cgi
  
 ### IMPORTANT:  The following line is the end of your CEA input file!
 end

               THERMODYNAMIC EQUILIBRIUM PROPERTIES AT ASSIGNED

                           TEMPERATURE AND PRESSURE

 CASE = test___________

             REACTANT                       MOLES         ENERGY      TEMP
                                                         KJ/KG-MOL      K
 FUEL        C6H5OH,phenol               90.0000000         0.000      0.000
 FUEL        Si                          10.0000000         0.000      0.000

 O/F=    0.00000  %FUEL=100.000000  R,EQ.RATIO=15.222222  PHI,EQ.RATIO= 0.000000

 THERMODYNAMIC PROPERTIES

 P, BAR            1.0132
 T, K             1900.00
 RHO, KG/CU M    1.5591-1
 H, KJ/KG         2613.33
 U, KJ/KG         1963.45
 G, KJ/KG        -17702.0
 S, KJ/(KG)(K)    10.6923

 M, (1/n)          24.309
 MW, MOL WT        10.800
 (dLV/dLP)t      -1.00054
 (dLV/dLT)p        1.0070
 Cp, KJ/(KG)(K)    2.8160
 GAMMAs            1.1398
 SON VEL,M/SEC      860.6

 MOLE FRACTIONS

 *C              1.380-12
 *CH             9.576-12
 CH2             3.3795-9
 CH3             2.6481-6
 CH2OH           8.046-13
 CH3O            6.871-14
 CH4             1.4480-4
 CH3OH           4.822-12
 *CO             1.1028-1
 *CO2            1.1784-6
 COOH            2.583-13
 *C2             7.425-14
 C2H             1.5265-9
 C2H2,acetylene  1.2748-4
 C2H2,vinylidene 6.6705-9
 CH2CO,ketene    3.9888-8
 O(CH)2O         4.446-16
 C2H3,vinyl      6.7030-9
 CH3CO,acetyl    5.646-12
 C2H4            1.1921-6
 C2H4O,ethylen-o 3.320-16
 CH3CHO,ethanal  6.274-12
 C2H5            1.040-10
 C2H6            7.228-10
 C2H5OH          1.583-16
 C2O             6.103-11
 *C3             9.058-13
 C3H3,1-propynl  1.706-12
 C3H3,2-propynl  1.2750-8
 C3H4,allene     3.0065-9
 C3H4,propyne    7.5891-9
 C3H4,cyclo-     9.951-12
 C3H5,allyl      2.563-11
 C3H6,propylene  5.789-11
 C3H6,cyclo-     1.842-13
 C3H6O,acetone   1.228-16
 C3H7,n-propyl   1.322-15
 C3H7,i-propyl   1.119-15
 C3H8            9.323-15
 C3O2            6.586-12
 C4H2,butadiyne  1.9346-8
 C4H4,1,3-cyclo- 1.422-14
 C4H6,butadiene  1.330-12
 C4H6,1butyne    1.064-13
 C4H6,2butyne    8.917-14
 C4H6,cyclo-     2.626-15
 C4H8,1-butene   6.913-16
 C4H8,cis2-buten 2.836-16
 C4H8,tr2-butene 3.186-16
 C4H8,isobutene  3.539-16
 C5H6,1,3cyclo-  3.039-14
 C6H2            3.102-12
 C6H5,phenyl     1.147-15
 C6H6            1.645-13
 *H              3.0353-4
 HCO             3.4154-8
 HCCO            8.621-11
 *H2             3.3262-1
 HCHO,formaldehy 3.4911-8
 HCOOH           1.536-12
 H2O             1.4952-5
 *O              7.645-13
 *OH             1.2744-9
 *Si             2.1618-7
 SiC             1.216-12
 SiC2            1.1459-8
 SiH             2.7359-7
 SiH2            7.6133-8
 SiH3            4.1649-9
 SiH4            9.4586-9
 SiO             7.6915-4
 SiO2            3.265-10
 Si2             2.625-10
 Si2C            9.8150-9
 Si3             3.142-12
 C(gr)           5.4416-1
 SiC(b)          1.1571-2

  * THERMODYNAMIC PROPERTIES FITTED TO 20000.K

  

         NASA-GLENN CHEMICAL EQUILIBRIUM PROGRAM CEA2, FEBRUARY 5, 2004
                   BY  BONNIE MCBRIDE AND SANFORD GORDON
      REFS: NASA RP-1311, PART I, 1994 AND NASA RP-1311, PART II, 1996

 *******************************************************************************

  
 ### CEA analysis performed on Sat 14-Jan-2023 08:35:22
  
 # Problem Type: "Assigned Temperature and Pressure"
  
 prob case=test___________4202 tp
  
 # Pressure (1 value):
 p,atm= 1
 # Temperature (1 value):
 t,k= 2000
  
 # You selected the following fuels and oxidizers:
 reac
 fuel C6H5OH,phenol    mole= 90.0000
 fuel Si               mole= 10.0000
  
 # You selected these options for output:
 # short version of output
 output short
 # Proportions of any products will be expressed as Mole Fractions.
 # Heat will be expressed as siunits
 output siunits
 # Trace variable:
 output trace=1e-16
  
 # Input prepared by this script:/var/www/sites/cearun.grc.nasa.gov/cgi-bin/CEARU
 N/prepareInputFile.cgi
  
 ### IMPORTANT:  The following line is the end of your CEA input file!
 end

               THERMODYNAMIC EQUILIBRIUM PROPERTIES AT ASSIGNED

                           TEMPERATURE AND PRESSURE

 CASE = test___________

             REACTANT                       MOLES         ENERGY      TEMP
                                                         KJ/KG-MOL      K
 FUEL        C6H5OH,phenol               90.0000000         0.000      0.000
 FUEL        Si                          10.0000000         0.000      0.000

 O/F=    0.00000  %FUEL=100.000000  R,EQ.RATIO=15.222222  PHI,EQ.RATIO= 0.000000

 THERMODYNAMIC PROPERTIES

 P, BAR            1.0132
 T, K             2000.00
 RHO, KG/CU M    1.4805-1
 H, KJ/KG         2898.77
 U, KJ/KG         2214.38
 G, KJ/KG        -18778.6
 S, KJ/(KG)(K)    10.8387

 M, (1/n)          24.298
 MW, MOL WT        10.798
 (dLV/dLP)t      -1.00063
 (dLV/dLT)p        1.0111
 Cp, KJ/(KG)(K)    2.8977
 GAMMAs            1.1365
 SON VEL,M/SEC      881.9

 MOLE FRACTIONS

 *C              1.334-11
 *CH             6.244-11
 CH2             1.1276-8
 CH3             4.0406-6
 CH2OH           1.057-12
 CH3O            1.027-13
 CH4             1.0940-4
 CH3OH           3.490-12
 *CO             1.1005-1
 *CO2            7.0784-7
 COOH            2.725-13
 *C2             1.010-12
 C2H             9.0195-9
 C2H2,acetylene  2.5632-4
 C2H2,vinylidene 2.3644-8
 CH2CO,ketene    4.7963-8
 O(CH)2O         4.740-16
 C2H3,vinyl      1.6402-8
 CH3CO,acetyl    7.698-12
 C2H4            1.3291-6
 C2H4O,ethylen-o 3.901-16
 CH3CHO,ethanal  5.102-12
 C2H5            1.417-10
 C2H6            5.160-10
 C2H5OH          1.028-16
 C2O             2.198-10
 *C3             1.216-11
 C3H3,1-propynl  6.645-12
 C3H3,2-propynl  3.5113-8
 C3H4,allene     5.2474-9
 C3H4,propyne    1.2949-8
 C3H4,cyclo-     2.275-11
 C3H5,allyl      4.129-11
 C3H6,propylene  5.756-11
 C3H6,cyclo-     2.054-13
 C3H7,n-propyl   1.691-15
 C3H7,i-propyl   1.375-15
 C3H8            6.198-15
 C3O2            1.029-11
 *C4             6.237-16
 C4H2,butadiyne  7.8910-8
 C4H4,1,3-cyclo- 4.571-14
 C4H6,butadiene  1.835-12
 C4H6,1butyne    1.694-13
 C4H6,2butyne    1.314-13
 C4H6,cyclo-     4.063-15
 C4H8,1-butene   6.391-16
 C4H8,cis2-buten 2.528-16
 C4H8,tr2-butene 2.842-16
 C4H8,isobutene  3.102-16
 *C5             2.392-15
 C5H6,1,3cyclo-  4.399-14
 C6H2            2.561-11
 C6H5,phenyl     3.141-15
 C6H6            2.002-13
 *H              6.2187-4
 HCO             5.4967-8
 HCCO            2.143-10
 *H2             3.3234-1
 HCHO,formaldehy 3.4491-8
 HCOOH           9.759-13
 H2O             9.7920-6
 *O              2.490-12
 *OH             2.0666-9
 *Si             1.1051-6
 SiC             1.494-11
 SiC2            1.0081-7
 SiH             1.0665-6
 SiH2            2.2084-7
 SiH3            9.6935-9
 SiH4            1.2915-8
 SiO             9.8752-4
 SiO2            3.078-10
 Si2             2.4399-9
 Si2C            8.2127-8
 Si3             4.185-11
 C(gr)           5.4427-1
 SiC(b)          1.1349-2

  * THERMODYNAMIC PROPERTIES FITTED TO 20000.K

  

         NASA-GLENN CHEMICAL EQUILIBRIUM PROGRAM CEA2, FEBRUARY 5, 2004
                   BY  BONNIE MCBRIDE AND SANFORD GORDON
      REFS: NASA RP-1311, PART I, 1994 AND NASA RP-1311, PART II, 1996

 *******************************************************************************

  
 ### CEA analysis performed on Sat 14-Jan-2023 08:35:34
  
 # Problem Type: "Assigned Temperature and Pressure"
  
 prob case=test___________4202 tp
  
 # Pressure (1 value):
 p,atm= 1
 # Temperature (1 value):
 t,k= 2100
  
 # You selected the following fuels and oxidizers:
 reac
 fuel C6H5OH,phenol    mole= 90.0000
 fuel Si               mole= 10.0000
  
 # You selected these options for output:
 # short version of output
 output short
 # Proportions of any products will be expressed as Mole Fractions.
 # Heat will be expressed as siunits
 output siunits
 # Trace variable:
 output trace=1e-16
  
 # Input prepared by this script:/var/www/sites/cearun.grc.nasa.gov/cgi-bin/CEARU
 N/prepareInputFile.cgi
  
 ### IMPORTANT:  The following line is the end of your CEA input file!
 end

               THERMODYNAMIC EQUILIBRIUM PROPERTIES AT ASSIGNED

                           TEMPERATURE AND PRESSURE

 CASE = test___________

             REACTANT                       MOLES         ENERGY      TEMP
                                                         KJ/KG-MOL      K
 FUEL        C6H5OH,phenol               90.0000000         0.000      0.000
 FUEL        Si                          10.0000000         0.000      0.000

 O/F=    0.00000  %FUEL=100.000000  R,EQ.RATIO=15.222222  PHI,EQ.RATIO= 0.000000

 THERMODYNAMIC PROPERTIES

 P, BAR            1.0132
 T, K             2100.00
 RHO, KG/CU M    1.4090-1
 H, KJ/KG         3194.08
 U, KJ/KG         2474.96
 G, KJ/KG        -19869.7
 S, KJ/(KG)(K)    10.9828

 M, (1/n)          24.280
 MW, MOL WT        10.796
 (dLV/dLP)t      -1.00090
 (dLV/dLT)p        1.0190
 Cp, KJ/(KG)(K)    3.0161
 GAMMAs            1.1325
 SON VEL,M/SEC      902.4

 MOLE FRACTIONS

 *C              1.038-10
 *CH             3.401-10
 CH2             3.3470-8
 CH3             5.9091-6
 CH2OH           1.353-12
 CH3O            1.479-13
 CH4             8.4927-5
 CH3OH           2.604-12
 *CO             1.0979-1
 *CO2            4.4744-7
 COOH            2.865-13
 *C2             1.069-11
 C2H             4.4925-8
 C2H2,acetylene  4.8134-4
 C2H2,vinylidene 7.4038-8
 CH2CO,ketene    5.6642-8
 O(CH)2O         5.034-16
 C2H3,vinyl      3.6756-8
 CH3CO,acetyl    1.019-11
 C2H4            1.4638-6
 C2H4O,ethylen-o 4.517-16
 CH3CHO,ethanal  4.232-12
 C2H5            1.870-10
 C2H6            3.798-10
 C2O             7.006-10
 *C3             1.267-10
 C3H3,1-propynl  2.266-11
 C3H3,2-propynl  8.7553-8
 C3H4,allene     8.6663-9
 C3H4,propyne    2.0948-8
 C3H4,cyclo-     4.795-11
 C3H5,allyl      6.348-11
 C3H6,propylene  5.715-11
 C3H6,cyclo-     2.264-13
 C3H7,n-propyl   2.107-15
 C3H7,i-propyl   1.653-15
 C3H8            4.279-15
 C3O2            1.543-11
 *C4             1.167-14
 C4H2,butadiyne  2.8071-7
 C4H4,1,3-cyclo- 1.311-13
 C4H6,butadiene  2.460-12
 C4H6,1butyne    2.573-13
 C4H6,2butyne    1.863-13
 C4H6,cyclo-     6.025-15
 C4H8,1-butene   5.943-16
 C4H8,cis2-buten 2.274-16
 C4H8,tr2-butene 2.559-16
 C4H8,isobutene  2.748-16
 *C5             4.743-14
 C5H6,1,3cyclo-  6.139-14
 C6H2            1.723-10
 C6H5,phenyl     7.798-15
 C6H6            2.386-13
 *H              1.1910-3
 HCO             8.4497-8
 HCCO            4.882-10
 *H2             3.3183-1
 HCHO,formaldehy 3.4111-8
 HCOOH           6.495-13
 H2O             6.6780-6
 *O              7.263-12
 *OH             3.2032-9
 *Si             4.8300-6
 SiC             1.441-10
 SiC2            7.1791-7
 SiH             3.6453-6
 SiH2            5.7859-7
 SiH3            2.0787-8
 SiH4            1.7108-8
 SiO             1.2371-3
 SiO2            2.925-10
 Si2             1.8274-8
 Si2C            5.5798-7
 Si3             4.333-10
 C(gr)           5.4427-1
 SiC(b)          1.1089-2

  * THERMODYNAMIC PROPERTIES FITTED TO 20000.K

  

         NASA-GLENN CHEMICAL EQUILIBRIUM PROGRAM CEA2, FEBRUARY 5, 2004
                   BY  BONNIE MCBRIDE AND SANFORD GORDON
      REFS: NASA RP-1311, PART I, 1994 AND NASA RP-1311, PART II, 1996

 *******************************************************************************

  
 ### CEA analysis performed on Sat 14-Jan-2023 08:35:47
  
 # Problem Type: "Assigned Temperature and Pressure"
  
 prob case=test___________4202 tp
  
 # Pressure (1 value):
 p,atm= 1
 # Temperature (1 value):
 t,k= 2200
  
 # You selected the following fuels and oxidizers:
 reac
 fuel C6H5OH,phenol    mole= 90.0000
 fuel Si               mole= 10.0000
  
 # You selected these options for output:
 # short version of output
 output short
 # Proportions of any products will be expressed as Mole Fractions.
 # Heat will be expressed as siunits
 output siunits
 # Trace variable:
 output trace=1e-16
  
 # Input prepared by this script:/var/www/sites/cearun.grc.nasa.gov/cgi-bin/CEARU
 N/prepareInputFile.cgi
  
 ### IMPORTANT:  The following line is the end of your CEA input file!
 end

               THERMODYNAMIC EQUILIBRIUM PROPERTIES AT ASSIGNED

                           TEMPERATURE AND PRESSURE

 CASE = test___________

             REACTANT                       MOLES         ENERGY      TEMP
                                                         KJ/KG-MOL      K
 FUEL        C6H5OH,phenol               90.0000000         0.000      0.000
 FUEL        Si                          10.0000000         0.000      0.000

 O/F=    0.00000  %FUEL=100.000000  R,EQ.RATIO=15.222222  PHI,EQ.RATIO= 0.000000

 THERMODYNAMIC PROPERTIES

 P, BAR            1.0132
 T, K             2200.00
 RHO, KG/CU M    1.3434-1
 H, KJ/KG         3503.90
 U, KJ/KG         2749.65
 G, KJ/KG        -20975.2
 S, KJ/(KG)(K)    11.1269

 M, (1/n)          24.252
 MW, MOL WT        10.795
 (dLV/dLP)t      -1.00145
 (dLV/dLT)p        1.0329
 Cp, KJ/(KG)(K)    3.1927
 GAMMAs            1.1275
 SON VEL,M/SEC      922.2

 MOLE FRACTIONS

 *C              6.703-10
 *CH             1.5861-9
 CH2             8.9767-8
 CH3             8.3247-6
 CH2OH           1.688-12
 CH3O            2.060-13
 CH4             6.7416-5
 CH3OH           1.993-12
 *CO             1.0950-1
 *CO2            2.9545-7
 COOH            3.002-13
 *C2             9.104-11
 C2H             1.9306-7
 C2H2,acetylene  8.5184-4
 C2H2,vinylidene 2.0825-7
 CH2CO,ketene    6.5808-8
 O(CH)2O         5.320-16
 C2H3,vinyl      7.6288-8
 CH3CO,acetyl    1.315-11
 C2H4            1.5933-6
 C2H4O,ethylen-o 5.159-16
 CH3CHO,ethanal  3.564-12
 C2H5            2.399-10
 C2H6            2.865-10
 C2O             2.0099-9
 *C3             1.0622-9
 C3H3,1-propynl  6.884-11
 C3H3,2-propynl  2.0020-7
 C3H4,allene     1.3631-8
 C3H4,propyne    3.2333-8
 C3H4,cyclo-     9.417-11
 C3H5,allyl      9.358-11
 C3H6,propylene  5.658-11
 C3H6,cyclo-     2.467-13
 C3H7,n-propyl   2.563-15
 C3H7,i-propyl   1.945-15
 C3H8            3.043-15
 C3O2            2.232-11
 *C4             1.670-13
 C4H2,butadiyne  8.8698-7
 C4H4,1,3-cyclo- 3.408-13
 C4H6,butadiene  3.216-12
 C4H6,1butyne    3.747-13
 C4H6,2butyne    2.548-13
 C4H6,cyclo-     8.594-15
 C4H8,1-butene   5.540-16
 C4H8,cis2-buten 2.057-16
 C4H8,tr2-butene 2.316-16
 C4H8,isobutene  2.452-16
 *C5             7.143-13
 C5H6,1,3cyclo-  8.286-14
 C6H2            9.712-10
 C6H5,phenyl     1.775-14
 C6H6            2.790-13
 *H              2.1513-3
 HCO             1.2480-7
 HCCO            1.0309-9
 *H2             3.3099-1
 HCHO,formaldehy 3.3743-8
 HCOOH           4.495-13
 H2O             4.7135-6
 *O              1.926-11
 *OH             4.7730-9
 *O2             1.156-16
 *Si             1.8448-5
 SiC             1.1288-9
 SiC2            4.2619-6
 SiH             1.1122-5
 SiH2            1.3878-6
 SiH3            4.1503-8
 SiH4            2.2055-8
 SiO             1.5174-3
 SiO2            2.796-10
 Si2             1.1365-7
 Si2C            3.1685-6
 Si3             3.6109-9
 C(gr)           5.4408-1
 SiC(b)          1.0777-2

  * THERMODYNAMIC PROPERTIES FITTED TO 20000.K

  

         NASA-GLENN CHEMICAL EQUILIBRIUM PROGRAM CEA2, FEBRUARY 5, 2004
                   BY  BONNIE MCBRIDE AND SANFORD GORDON
      REFS: NASA RP-1311, PART I, 1994 AND NASA RP-1311, PART II, 1996

 *******************************************************************************

  
 ### CEA analysis performed on Sat 14-Jan-2023 08:35:59
  
 # Problem Type: "Assigned Temperature and Pressure"
  
 prob case=test___________4202 tp
  
 # Pressure (1 value):
 p,atm= 1
 # Temperature (1 value):
 t,k= 2300
  
 # You selected the following fuels and oxidizers:
 reac
 fuel C6H5OH,phenol    mole= 90.0000
 fuel Si               mole= 10.0000
  
 # You selected these options for output:
 # short version of output
 output short
 # Proportions of any products will be expressed as Mole Fractions.
 # Heat will be expressed as siunits
 output siunits
 # Trace variable:
 output trace=1e-16
  
 # Input prepared by this script:/var/www/sites/cearun.grc.nasa.gov/cgi-bin/CEARU
 N/prepareInputFile.cgi
  
 ### IMPORTANT:  The following line is the end of your CEA input file!
 end

               THERMODYNAMIC EQUILIBRIUM PROPERTIES AT ASSIGNED

                           TEMPERATURE AND PRESSURE

 CASE = test___________

             REACTANT                       MOLES         ENERGY      TEMP
                                                         KJ/KG-MOL      K
 FUEL        C6H5OH,phenol               90.0000000         0.000      0.000
 FUEL        Si                          10.0000000         0.000      0.000

 O/F=    0.00000  %FUEL=100.000000  R,EQ.RATIO=15.222222  PHI,EQ.RATIO= 0.000000

 THERMODYNAMIC PROPERTIES

 P, BAR            1.0132
 T, K             2300.00
 RHO, KG/CU M    1.2825-1
 H, KJ/KG         3835.95
 U, KJ/KG         3045.87
 G, KJ/KG        -22095.2
 S, KJ/(KG)(K)    11.2744

 M, (1/n)          24.205
 MW, MOL WT        10.796
 (dLV/dLP)t      -1.00246
 (dLV/dLT)p        1.0573
 Cp, KJ/(KG)(K)    3.4709
 GAMMAs            1.1213
 SON VEL,M/SEC      941.2

 MOLE FRACTIONS

 *C              3.6793-9
 *CH             6.4617-9
 CH2             2.2031-7
 CH3             1.1341-5
 CH2OH           2.060-12
 CH3O            2.784-13
 CH4             5.4483-5
 CH3OH           1.555-12
 *CO             1.0920-1
 *CO2            2.0254-7
 COOH            3.133-13
 *C2             6.426-10
 C2H             7.2966-7
 C2H2,acetylene  1.4309-3
 C2H2,vinylidene 5.3326-7
 CH2CO,ketene    7.5302-8
 O(CH)2O         5.590-16
 C2H3,vinyl      1.4797-7
 CH3CO,acetyl    1.655-11
 C2H4            1.7139-6
 C2H4O,ethylen-o 5.808-16
 CH3CHO,ethanal  3.037-12
 C2H5            2.995-10
 C2H6            2.202-10
 C2O             5.2603-9
 *C3             7.3696-9
 C3H3,1-propynl  1.890-10
 C3H3,2-propynl  4.2412-7
 C3H4,allene     2.0517-8
 C3H4,propyne    4.7826-8
 C3H4,cyclo-     1.736-10
 C3H5,allyl      1.327-10
 C3H6,propylene  5.572-11
 C3H6,cyclo-     2.655-13
 C3H7,n-propyl   3.043-15
 C3H7,i-propyl   2.240-15
 C3H8            2.213-15
 C3O2            3.129-11
 *C4             1.892-12
 C4H2,butadiyne  2.5266-6
 C4H4,1,3-cyclo- 8.109-13
 C4H6,butadiene  4.104-12
 C4H6,1butyne    5.247-13
 C4H6,2butyne    3.369-13
 C4H6,cyclo-     1.182-14
 C4H8,1-butene   5.156-16
 C4H8,cis2-buten 1.862-16
 C4H8,tr2-butene 2.098-16
 C4H8,isobutene  2.192-16
 *C5             8.469-12
 C5H6,1,3cyclo-  1.083-13
 C6H2            4.6901-9
 C6H5,phenyl     3.740-14
 C6H6            3.197-13
 *H              3.6929-3
 HCO             1.7792-7
 HCCO            2.0366-9
 *H2             3.2966-1
 HCHO,formaldehy 3.3350-8
 HCOOH           3.213-13
 H2O             3.4245-6
 *O              4.702-11
 *OH             6.8687-9
 *O2             2.039-16
 *Si             6.2696-5
 SiC             7.3798-9
 SiC2            2.1611-5
 SiH             3.0746-5
 SiH2            3.0808-6
 SiH3            7.7782-8
 SiH4            2.7720-8
 SiO             1.8272-3
 SiO2            2.687-10
 Si2             6.0167-7
 Si2C            1.5404-5
 Si3             2.4940-8
 C(gr)           5.4362-1
 SiC(b)          1.0359-2

  * THERMODYNAMIC PROPERTIES FITTED TO 20000.K

  

         NASA-GLENN CHEMICAL EQUILIBRIUM PROGRAM CEA2, FEBRUARY 5, 2004
                   BY  BONNIE MCBRIDE AND SANFORD GORDON
      REFS: NASA RP-1311, PART I, 1994 AND NASA RP-1311, PART II, 1996

 *******************************************************************************

  
 ### CEA analysis performed on Sat 14-Jan-2023 08:36:12
  
 # Problem Type: "Assigned Temperature and Pressure"
  
 prob case=test___________4202 tp
  
 # Pressure (1 value):
 p,atm= 1
 # Temperature (1 value):
 t,k= 2400
  
 # You selected the following fuels and oxidizers:
 reac
 fuel C6H5OH,phenol    mole= 90.0000
 fuel Si               mole= 10.0000
  
 # You selected these options for output:
 # short version of output
 output short
 # Proportions of any products will be expressed as Mole Fractions.
 # Heat will be expressed as siunits
 output siunits
 # Trace variable:
 output trace=1e-16
  
 # Input prepared by this script:/var/www/sites/cearun.grc.nasa.gov/cgi-bin/CEARU
 N/prepareInputFile.cgi
  
 ### IMPORTANT:  The following line is the end of your CEA input file!
 end

               THERMODYNAMIC EQUILIBRIUM PROPERTIES AT ASSIGNED

                           TEMPERATURE AND PRESSURE

 CASE = test___________

             REACTANT                       MOLES         ENERGY      TEMP
                                                         KJ/KG-MOL      K
 FUEL        C6H5OH,phenol               90.0000000         0.000      0.000
 FUEL        Si                          10.0000000         0.000      0.000

 O/F=    0.00000  %FUEL=100.000000  R,EQ.RATIO=15.222222  PHI,EQ.RATIO= 0.000000

 THERMODYNAMIC PROPERTIES

 P, BAR            1.0132
 T, K             2400.00
 RHO, KG/CU M    1.2250-1
 H, KJ/KG         4204.72
 U, KJ/KG         3377.58
 G, KJ/KG        -23230.4
 S, KJ/(KG)(K)    11.4313

 M, (1/n)          24.125
 MW, MOL WT        10.797
 (dLV/dLP)t      -1.00435
 (dLV/dLT)p        1.1030
 Cp, KJ/(KG)(K)    3.9530
 GAMMAs            1.1132
 SON VEL,M/SEC      959.6

 MOLE FRACTIONS

 *C              1.7535-8
 *CH             2.3389-8
 CH2             4.9991-7
 CH3             1.4979-5
 CH2OH           2.458-12
 CH3O            3.655-13
 CH4             4.4625-5
 CH3OH           1.231-12
 *CO             1.0888-1
 *CO2            1.4335-7
 COOH            3.254-13
 *C2             3.8508-9
 C2H             2.4644-6
 C2H2,acetylene  2.2945-3
 C2H2,vinylidene 1.2569-6
 CH2CO,ketene    8.4892-8
 O(CH)2O         5.832-16
 C2H3,vinyl      2.7007-7
 CH3CO,acetyl    2.035-11
 C2H4            1.8204-6
 C2H4O,ethylen-o 6.437-16
 CH3CHO,ethanal  2.605-12
 C2H5            3.640-10
 C2H6            1.714-10
 C2O             1.2706-8
 *C3             4.3374-8
 C3H3,1-propynl  4.740-10
 C3H3,2-propynl  8.3910-7
 C3H4,allene     2.9642-8
 C3H4,propyne    6.8002-8
 C3H4,cyclo-     3.020-10
 C3H5,allyl      1.814-10
 C3H6,propylene  5.441-11
 C3H6,cyclo-     2.814-13
 C3H7,n-propyl   3.521-15
 C3H7,i-propyl   2.520-15
 C3H8            1.632-15
 C3O2            4.264-11
 *C4             1.750-11
 C4H2,butadiyne  6.5677-6
 C4H4,1,3-cyclo- 1.782-12
 C4H6,butadiene  5.109-12
 C4H6,1butyne    7.070-13
 C4H6,2butyne    4.310-13
 C4H6,cyclo-     1.569-14
 C4H8,1-butene   4.765-16
 C4H8,cis2-buten 1.677-16
 C4H8,tr2-butene 1.892-16
 C4H8,isobutene  1.953-16
 *C5             8.152-11
 C5H6,1,3cyclo-  1.372-13
 C6H2            1.9766-8
 C6H5,phenyl     7.341-14
 C6H6            3.587-13
 *H              6.0616-3
 HCO             2.4576-7
 HCCO            3.7933-9
 *H2             3.2764-1
 HCHO,formaldehy 3.2885-8
 HCOOH           2.356-13
 H2O             2.5478-6
 *O              1.067-10
 *OH             9.5805-9
 *O2             3.433-16
 *Si             1.9253-4
 SiC             4.1227-8
 SiC2            9.5548-5
 SiH             7.7966-5
 SiH2            6.3866-6
 SiH3            1.3770-7
 SiH4            3.3993-8
 SiO             2.1654-3
 SiO2            2.592-10
 Si2             2.7693-6
 Si2C            6.5434-5
 Si3             1.4628-7
 C(gr)           5.4278-1
 SiC(b)          9.6635-3

  * THERMODYNAMIC PROPERTIES FITTED TO 20000.K

  

         NASA-GLENN CHEMICAL EQUILIBRIUM PROGRAM CEA2, FEBRUARY 5, 2004
                   BY  BONNIE MCBRIDE AND SANFORD GORDON
      REFS: NASA RP-1311, PART I, 1994 AND NASA RP-1311, PART II, 1996

 *******************************************************************************

  
 ### CEA analysis performed on Sat 14-Jan-2023 08:36:23
  
 # Problem Type: "Assigned Temperature and Pressure"
  
 prob case=test___________4202 tp
  
 # Pressure (1 value):
 p,atm= 1
 # Temperature (1 value):
 t,k= 2500
  
 # You selected the following fuels and oxidizers:
 reac
 fuel C6H5OH,phenol    mole= 90.0000
 fuel Si               mole= 10.0000
  
 # You selected these options for output:
 # short version of output
 output short
 # Proportions of any products will be expressed as Mole Fractions.
 # Heat will be expressed as siunits
 output siunits
[...]
 end

               THERMODYNAMIC EQUILIBRIUM PROPERTIES AT ASSIGNED

                           TEMPERATURE AND PRESSURE

 CASE = test___________

             REACTANT                       MOLES         ENERGY      TEMP
                                                         KJ/KG-MOL      K
 FUEL        C6H5OH,phenol               90.0000000         0.000      0.000
 FUEL        Si                          10.0000000         0.000      0.000

 O/F=    0.00000  %FUEL=100.000000  R,EQ.RATIO=15.222222  PHI,EQ.RATIO= 0.000000

 THERMODYNAMIC PROPERTIES

 P, BAR            1.0132
 T, K             4500.00
 RHO, KG/CU M    2.8296-2
 H, KJ/KG         43382.2
 U, KJ/KG         39801.3
 G, KJ/KG        -56828.3
 S, KJ/(KG)(K)    22.2690

 M, (1/n)          10.449
 (dLV/dLP)t      -1.09745
 (dLV/dLT)p        2.5099
 Cp, KJ/(KG)(K)   22.2702
 GAMMAs            1.1463
 SON VEL,M/SEC     2026.1

 MOLE FRACTIONS

 *C              1.2622-1
 *CH             1.8349-3
 CH2             4.9908-5
 CH3             9.6825-7
 CH2OH           1.497-13
 CH3O            7.288-14
 CH4             5.0187-9
 CH3OH           2.154-16
 *CO             1.0741-1
 *CO2            1.1660-8
 COOH            3.287-13
 *C2             5.4901-2
 C2H             1.6458-2
 C2H2,acetylene  1.1360-3
 C2H2,vinylidene 3.3635-5
 CH2CO,ketene    2.6834-9
 C2H3,vinyl      1.0396-7
 CH3CO,acetyl    3.687-13
 C2H4            4.725-10
 CH3CHO,ethanal  2.040-16
 C2H5            8.334-14
 C2O             3.3563-5
 *C3             8.1316-2
 C3H3,1-propynl  1.0195-9
 C3H3,2-propynl  1.4397-7
 C3H4,allene     3.917-11
 C3H4,propyne    7.522-11
 C3H4,cyclo-     2.939-12
 C3H5,allyl      2.982-14
 C3O2            1.336-10
 *C4             9.7351-4
 C4H2,butadiyne  1.9031-5
 C4H4,1,3-cyclo- 3.989-14
 *C5             1.1233-3
 C6H2            3.5716-7
 *H              5.6916-1
 HCO             1.6786-6
 HCCO            1.2187-7
 HO2             6.876-16
 *H2             2.7379-2
 HCHO,formaldehy 1.3290-9
 HCOOH           1.264-15
 H2O             2.7771-8
 *O              4.5801-6
 *OH             4.2639-7
 *O2             1.720-12
 *Si             6.4997-3
 SiC             1.4601-4
 SiC2            5.2145-3
 SiH             6.9310-5
 SiH2            1.4636-7
 SiH3            1.120-10
 SiH4            1.213-13
 SiO             7.0965-6
 SiO2            2.977-13
 Si2             6.4566-7
 Si2C            9.6569-7
 Si3             4.043-11

  * THERMODYNAMIC PROPERTIES FITTED TO 20000.K

  

         NASA-GLENN CHEMICAL EQUILIBRIUM PROGRAM CEA2, FEBRUARY 5, 2004
                   BY  BONNIE MCBRIDE AND SANFORD GORDON
      REFS: NASA RP-1311, PART I, 1994 AND NASA RP-1311, PART II, 1996

 *******************************************************************************

  
 ### CEA analysis performed on Sat 14-Jan-2023 08:42:01
  
 # Problem Type: "Assigned Temperature and Pressure"
  
 prob case=test___________4202 tp
  
 # Pressure (1 value):
 p,atm= 1
 # Temperature (1 value):
 t,k= 4600
  
 # You selected the following fuels and oxidizers:
 reac
 fuel C6H5OH,phenol    mole= 90.0000
 fuel Si               mole= 10.0000
  
 # You selected these options for output:
 # short version of output
 output short
 # Proportions of any products will be expressed as Mole Fractions.
 # Heat will be expressed as siunits
 output siunits
 # Trace variable:
 output trace=1e-16
  
 # Input prepared by this script:/var/www/sites/cearun.grc.nasa.gov/cgi-bin/CEARU
 N/prepareInputFile.cgi
  
 ### IMPORTANT:  The following line is the end of your CEA input file!
 end

               THERMODYNAMIC EQUILIBRIUM PROPERTIES AT ASSIGNED

                           TEMPERATURE AND PRESSURE

 CASE = test___________

             REACTANT                       MOLES         ENERGY      TEMP
                                                         KJ/KG-MOL      K
 FUEL        C6H5OH,phenol               90.0000000         0.000      0.000
 FUEL        Si                          10.0000000         0.000      0.000

 O/F=    0.00000  %FUEL=100.000000  R,EQ.RATIO=15.222222  PHI,EQ.RATIO= 0.000000

 THERMODYNAMIC PROPERTIES

 P, BAR            1.0132
 T, K             4600.00
 RHO, KG/CU M    2.6776-2
 H, KJ/KG         45645.3
 U, KJ/KG         41861.0
 G, KJ/KG        -59080.0
 S, KJ/(KG)(K)    22.7664

 M, (1/n)          10.107
 (dLV/dLP)t      -1.09732
 (dLV/dLT)p        2.5147
 Cp, KJ/(KG)(K)   22.9565
 GAMMAs            1.1485
 SON VEL,M/SEC     2084.7

 MOLE FRACTIONS

 *C              1.5464-1
 *CH             1.8202-3
 CH2             3.7858-5
 CH3             5.5531-7
 CH2OH           1.003-13
 CH3O            5.064-14
 CH4             2.2652-9
 CH3OH           1.137-16
 *CO             1.0390-1
 *CO2            1.2489-8
 COOH            3.390-13
 *C2             5.7688-2
 C2H             1.2959-2
 C2H2,acetylene  6.4200-4
 C2H2,vinylidene 2.0860-5
 CH2CO,ketene    1.6574-9
 C2H3,vinyl      5.2708-8
 CH3CO,acetyl    2.041-13
 C2H4            1.815-10
 C2H5            2.891-14
 C2O             3.3510-5
 *C3             6.8496-2
 C3H3,1-propynl  4.562-10
 C3H3,2-propynl  6.0528-8
 C3H4,allene     1.326-11
 C3H4,propyne    2.534-11
 C3H4,cyclo-     1.045-12
 C3H5,allyl      8.705-15
 C3O2            1.120-10
 *C4             7.5815-4
 C4H2,butadiyne  8.0158-6
 C4H4,1,3-cyclo- 1.225-14
 *C5             7.1085-4
 C6H2            1.1265-7
 *H              5.6605-1
 HCO             1.5436-6
 HCCO            9.8574-8
 HO2             1.004-15
 *H2             2.0680-2
 HCHO,formaldehy 9.765-10
 HCOOH           1.038-15
 H2O             2.3398-8
 *O              6.8723-6
 *OH             4.8742-7
 *O2             2.870-12
 *Si             7.1589-3
 SiC             1.5220-4
 SiC2            4.1651-3
 SiH             6.3186-5
 SiH2            1.1043-7
 SiH3            7.033-11
 SiH4            6.045-14
 SiO             7.2629-6
 SiO2            3.493-13
 Si2             6.4717-7
 Si2C            7.5696-7
 Si3             3.519-11

  * THERMODYNAMIC PROPERTIES FITTED TO 20000.K

  

         NASA-GLENN CHEMICAL EQUILIBRIUM PROGRAM CEA2, FEBRUARY 5, 2004
                   BY  BONNIE MCBRIDE AND SANFORD GORDON
      REFS: NASA RP-1311, PART I, 1994 AND NASA RP-1311, PART II, 1996

 *******************************************************************************

  
 ### CEA analysis performed on Sat 14-Jan-2023 08:42:12
  
 # Problem Type: "Assigned Temperature and Pressure"
  
 prob case=test___________4202 tp
  
 # Pressure (1 value):
 p,atm= 1
 # Temperature (1 value):
 t,k= 4700
  
 # You selected the following fuels and oxidizers:
 reac
 fuel C6H5OH,phenol    mole= 90.0000
 fuel Si               mole= 10.0000
  
 # You selected these options for output:
 # short version of output
 output short
 # Proportions of any products will be expressed as Mole Fractions.
 # Heat will be expressed as siunits
 output siunits
 # Trace variable:
 output trace=1e-16
  
 # Input prepared by this script:/var/www/sites/cearun.grc.nasa.gov/cgi-bin/CEARU
 N/prepareInputFile.cgi
  
 ### IMPORTANT:  The following line is the end of your CEA input file!
 end

               THERMODYNAMIC EQUILIBRIUM PROPERTIES AT ASSIGNED

                           TEMPERATURE AND PRESSURE

 CASE = test___________

             REACTANT                       MOLES         ENERGY      TEMP
                                                         KJ/KG-MOL      K
 FUEL        C6H5OH,phenol               90.0000000         0.000      0.000
 FUEL        Si                          10.0000000         0.000      0.000

 O/F=    0.00000  %FUEL=100.000000  R,EQ.RATIO=15.222222  PHI,EQ.RATIO= 0.000000

 THERMODYNAMIC PROPERTIES

 P, BAR            1.0132
 T, K             4700.00
 RHO, KG/CU M    2.5368-2
 H, KJ/KG         47961.6
 U, KJ/KG         43967.4
 G, KJ/KG        -61381.6
 S, KJ/(KG)(K)    23.2645

 M, (1/n)           9.784
 (dLV/dLP)t      -1.09669
 (dLV/dLT)p        2.5020
 Cp, KJ/(KG)(K)   23.2874
 GAMMAs            1.1517
 SON VEL,M/SEC     2144.8

 MOLE FRACTIONS

 *C              1.8514-1
 *CH             1.7702-3
 CH2             2.8307-5
 CH3             3.1592-7
 CH2OH           6.722-14
 CH3O            3.512-14
 CH4             1.0204-9
 *CO             1.0057-1
 *CO2            1.3521-8
 COOH            3.520-13
 *C2             5.8764-2
 C2H             9.9571-3
 C2H2,acetylene  3.5716-4
 C2H2,vinylidene 1.2678-5
 CH2CO,ketene    1.0179-9
 C2H3,vinyl      2.6269-8
 CH3CO,acetyl    1.122-13
 C2H4            6.900-11
 C2H5            9.907-15
 C2O             3.2970-5
 *C3             5.5664-2
 C3H3,1-propynl  1.989-10
 C3H3,2-propynl  2.4857-8
 C3H4,allene     4.398-12
 C3H4,propyne    8.372-12
 C3H4,cyclo-     3.637-13
 C3H5,allyl      2.494-15
 C3O2            9.314-11
 *C4             5.6341-4
 C4H2,butadiyne  3.2696-6
 C4H4,1,3-cyclo- 3.652-15
 *C5             4.2672-4
 C6H2            3.3850-8
 *H              5.5990-1
 HCO             1.4154-6
 HCCO            7.8811-8
 HO2             1.474-15
 *H2             1.5627-2
 HCHO,formaldehy 7.183-10
 HCOOH           8.622-16
 H2O             1.9908-8
 *O              1.0279-5
 *OH             5.5861-7
 *O2             4.822-12
 *Si             7.7409-3
 SiC             1.5387-4
 SiC2            3.2190-3
 SiH             5.6684-5
 SiH2            8.2180-8
 SiH3            4.364-11
 SiH4            2.991-14
 SiO             7.4219-6
 SiO2            4.126-13
 Si2             6.3036-7
 Si2C            5.7392-7
 Si3             2.951-11

  * THERMODYNAMIC PROPERTIES FITTED TO 20000.K

  

         NASA-GLENN CHEMICAL EQUILIBRIUM PROGRAM CEA2, FEBRUARY 5, 2004
                   BY  BONNIE MCBRIDE AND SANFORD GORDON
      REFS: NASA RP-1311, PART I, 1994 AND NASA RP-1311, PART II, 1996

 *******************************************************************************

  
 ### CEA analysis performed on Sat 14-Jan-2023 08:42:25
  
 # Problem Type: "Assigned Temperature and Pressure"
  
 prob case=test___________4202 tp
  
 # Pressure (1 value):
 p,atm= 1
 # Temperature (1 value):
 t,k= 4800
  
 # You selected the following fuels and oxidizers:
 reac
 fuel C6H5OH,phenol    mole= 90.0000
 fuel Si               mole= 10.0000
  
 # You selected these options for output:
 # short version of output
 output short
 # Proportions of any products will be expressed as Mole Fractions.
 # Heat will be expressed as siunits
 output siunits
 # Trace variable:
 output trace=1e-16
  
 # Input prepared by this script:/var/www/sites/cearun.grc.nasa.gov/cgi-bin/CEARU
 N/prepareInputFile.cgi
  
 ### IMPORTANT:  The following line is the end of your CEA input file!
 end

               THERMODYNAMIC EQUILIBRIUM PROPERTIES AT ASSIGNED

                           TEMPERATURE AND PRESSURE

 CASE = test___________

             REACTANT                       MOLES         ENERGY      TEMP
                                                         KJ/KG-MOL      K
 FUEL        C6H5OH,phenol               90.0000000         0.000      0.000
 FUEL        Si                          10.0000000         0.000      0.000

 O/F=    0.00000  %FUEL=100.000000  R,EQ.RATIO=15.222222  PHI,EQ.RATIO= 0.000000

 THERMODYNAMIC PROPERTIES

 P, BAR            1.0132
 T, K             4800.00
 RHO, KG/CU M    2.4077-2
 H, KJ/KG         50282.2
 U, KJ/KG         46073.7
 G, KJ/KG        -63732.6
 S, KJ/(KG)(K)    23.7531

 M, (1/n)           9.483
 (dLV/dLP)t      -1.09436
 (dLV/dLT)p        2.4541
 Cp, KJ/(KG)(K)   23.0034
 GAMMAs            1.1563
 SON VEL,M/SEC     2206.0

 MOLE FRACTIONS

 *C              2.1650-1
 *CH             1.6894-3
 CH2             2.0909-5
 CH3             1.7888-7
 CH2OH           4.523-14
 CH3O            2.444-14
 CH4             4.608-10
 *CO             9.7476-2
 *CO2            1.4831-8
 COOH            3.694-13
 *C2             5.7929-2
 C2H             7.4608-3
 C2H2,acetylene  1.9568-4
 C2H2,vinylidene 7.5567-6
 CH2CO,ketene    6.229-10
 C2H3,vinyl      1.2897-8
 CH3CO,acetyl    6.155-14
 C2H4            2.602-11
 C2H5            3.370-15
 C2O             3.1954-5
 *C3             4.3498-2
 C3H3,1-propynl  8.454-11
 C3H3,2-propynl  9.9773-9
 C3H4,allene     1.434-12
 C3H4,propyne    2.717-12
 C3H4,cyclo-     1.241-13
 C3H5,allyl      7.034-16
 C3O2            7.688-11
 *C4             3.9773-4
 C4H2,butadiyne  1.2886-6
 C4H4,1,3-cyclo- 1.057-15
 *C5             2.4156-4
 C6H2            9.6429-9
 *H              5.5184-1
 HCO             1.2973-6
 HCCO            6.2347-8
 HO2             2.193-15
 *H2             1.1851-2
 HCHO,formaldehy 5.310-10
 HCOOH           7.275-16
 H2O             1.7192-8
 *O              1.5367-5
 *OH             6.4430-7
 *O2             8.187-12
 *Si             8.2240-3
 SiC             1.5082-4
 SiC2            2.4023-3
 SiH             5.0150-5
 SiH2            6.0537-8
 SiH3            2.689-11
 SiH4            1.478-14
 SiO             7.5893-6
 SiO2            4.929-13
 Si2             5.9732-7
 Si2C            4.2069-7
 Si3             2.388-11

  * THERMODYNAMIC PROPERTIES FITTED TO 20000.K

  

         NASA-GLENN CHEMICAL EQUILIBRIUM PROGRAM CEA2, FEBRUARY 5, 2004
                   BY  BONNIE MCBRIDE AND SANFORD GORDON
      REFS: NASA RP-1311, PART I, 1994 AND NASA RP-1311, PART II, 1996

 *******************************************************************************

  
 ### CEA analysis performed on Sat 14-Jan-2023 08:42:36
  
 # Problem Type: "Assigned Temperature and Pressure"
  
 prob case=test___________4202 tp
  
 # Pressure (1 value):
 p,atm= 1
 # Temperature (1 value):
 t,k= 4900
  
 # You selected the following fuels and oxidizers:
 reac
 fuel C6H5OH,phenol    mole= 90.0000
 fuel Si               mole= 10.0000
  
 # You selected these options for output:
 # short version of output
 output short
 # Proportions of any products will be expressed as Mole Fractions.
 # Heat will be expressed as siunits
 output siunits
 # Trace variable:
 output trace=1e-16
  
 # Input prepared by this script:/var/www/sites/cearun.grc.nasa.gov/cgi-bin/CEARU
 N/prepareInputFile.cgi
  
 ### IMPORTANT:  The following line is the end of your CEA input file!
 end

               THERMODYNAMIC EQUILIBRIUM PROPERTIES AT ASSIGNED

                           TEMPERATURE AND PRESSURE

 CASE = test___________

             REACTANT                       MOLES         ENERGY      TEMP
                                                         KJ/KG-MOL      K
 FUEL        C6H5OH,phenol               90.0000000         0.000      0.000
 FUEL        Si                          10.0000000         0.000      0.000

 O/F=    0.00000  %FUEL=100.000000  R,EQ.RATIO=15.222222  PHI,EQ.RATIO= 0.000000

 THERMODYNAMIC PROPERTIES

 P, BAR            1.0132
 T, K             4900.00
 RHO, KG/CU M    2.2909-2
 H, KJ/KG         52536.3
 U, KJ/KG         48113.3
 G, KJ/KG        -66131.4
 S, KJ/(KG)(K)    24.2179

 M, (1/n)           9.211
 (dLV/dLP)t      -1.08948
 (dLV/dLT)p        2.3610
 Cp, KJ/(KG)(K)   21.9461
 GAMMAs            1.1625
 SON VEL,M/SEC     2267.5

 MOLE FRACTIONS

 *C              2.4732-1
 *CH             1.5843-3
 CH2             1.5296-5
 CH3             1.0120-7
 CH2OH           3.074-14
 CH3O            1.716-14
 CH4             2.097-10
 *CO             9.4671-2
 *CO2            1.6521-8
 COOH            3.934-13
 *C2             5.5219-2
 C2H             5.4536-3
 C2H2,acetylene  1.0572-4
 C2H2,vinylidene 4.4242-6
 CH2CO,ketene    3.809-10
 C2H3,vinyl      6.2554-9
 CH3CO,acetyl    3.381-14
 C2H4            9.782-12
 C2H5            1.145-15
 C2O             3.0517-5
 *C3             3.2625-2
 C3H3,1-propynl  3.511-11
 C3H3,2-propynl  3.9223-9
 C3H4,allene     4.606-13
 C3H4,propyne    8.695-13
 C3H4,cyclo-     4.165-14
 C3H5,allyl      1.963-16
 C3O2            6.302-11
 *C4             2.6603-4
 C4H2,butadiyne  4.9050-7
 C4H4,1,3-cyclo- 2.981-16
 *C5             1.2849-4
 C6H2            2.5990-9
 *H              5.4298-1
 HCO             1.1916-6
 HCCO            4.8888-8
 HO2             3.319-15
 *H2             9.0477-3
 HCHO,formaldehy 3.959-10
 HCOOH           6.271-16
 H2O             1.5138-8
 *O              2.3013-5
 *OH             7.5053-7
 *O2             1.411-11
 *Si             8.5982-3
 SiC             1.4347-4
 SiC2            1.7310-3
 SiH             4.3890-5
 SiH2            4.4338-8
 SiH3            1.656-11
 SiH4            7.349-15
 SiO             7.7870-6
 SiO2            5.978-13
 Si2             5.5213-7
 Si2C            2.9864-7
 Si3             1.870-11

  * THERMODYNAMIC PROPERTIES FITTED TO 20000.K

  

         NASA-GLENN CHEMICAL EQUILIBRIUM PROGRAM CEA2, FEBRUARY 5, 2004
                   BY  BONNIE MCBRIDE AND SANFORD GORDON
      REFS: NASA RP-1311, PART I, 1994 AND NASA RP-1311, PART II, 1996

 *******************************************************************************

  
 ### CEA analysis performed on Sat 14-Jan-2023 08:42:48
  
 # Problem Type: "Assigned Temperature and Pressure"
  
 prob case=test___________4202 tp
  
 # Pressure (1 value):
 p,atm= 1
 # Temperature (1 value):
 t,k= 5000
  
 # You selected the following fuels and oxidizers:
 reac
 fuel C6H5OH,phenol    mole= 90.0000
 fuel Si               mole= 10.0000
  
 # You selected these options for output:
 # short version of output
 output short
 # Proportions of any products will be expressed as Mole Fractions.
 # Heat will be expressed as siunits
 output siunits
 # Trace variable:
 output trace=1e-16
  
 # Input prepared by this script:/var/www/sites/cearun.grc.nasa.gov/cgi-bin/CEARU
 N/prepareInputFile.cgi
  
 ### IMPORTANT:  The following line is the end of your CEA input file!
 end

               THERMODYNAMIC EQUILIBRIUM PROPERTIES AT ASSIGNED

                           TEMPERATURE AND PRESSURE

 CASE = test___________

             REACTANT                       MOLES         ENERGY      TEMP
                                                         KJ/KG-MOL      K
 FUEL        C6H5OH,phenol               90.0000000         0.000      0.000
 FUEL        Si                          10.0000000         0.000      0.000

 O/F=    0.00000  %FUEL=100.000000  R,EQ.RATIO=15.222222  PHI,EQ.RATIO= 0.000000

 THERMODYNAMIC PROPERTIES

 P, BAR            1.0132
 T, K             5000.00
 RHO, KG/CU M    2.1870-2
 H, KJ/KG         54646.1
 U, KJ/KG         50013.1
 G, KJ/KG        -68574.9
 S, KJ/(KG)(K)    24.6442

 M, (1/n)           8.973
 (dLV/dLP)t      -1.08187
 (dLV/dLT)p        2.2240
 Cp, KJ/(KG)(K)   20.1380
 GAMMAs            1.1706
 SON VEL,M/SEC     2328.8

 MOLE FRACTIONS

 *C              2.7617-1
 *CH             1.4629-3
 CH2             1.1117-5
 CH3             5.7427-8
 CH2OH           2.121-14
 CH3O            1.222-14
 CH4             9.666-11
 *CO             9.2213-2
 *CO2            1.8721-8
 COOH            4.266-13
 *C2             5.0928-2
 C2H             3.8954-3
 C2H2,acetylene  5.6477-5
 C2H2,vinylidene 2.5516-6
 CH2CO,ketene    2.336-10
 C2H3,vinyl      3.0099-9
 CH3CO,acetyl    1.870-14
 C2H4            3.683-12
 C2H5            3.908-16
 C2O             2.8752-5
 *C3             2.3498-2
 C3H3,1-propynl  1.431-11
 C3H3,2-propynl  1.5161-9
 C3H4,allene     1.466-13
 C3H4,propyne    2.757-13
 C3H4,cyclo-     1.382-14
 C3O2            5.138-11
 *C4             1.6869-4
 C4H2,butadiyne  1.8079-7
 *C5             6.4248-5
 C6H2            6.643-10
 *H              5.3424-1
 HCO             1.0993-6
 HCCO            3.8085-8
 HO2             5.134-15
 *H2             6.9725-3
 HCHO,formaldehy 2.988-10
 HCOOH           5.547-16
 H2O             1.3640-8
 *O              3.4578-5
 *OH             8.8527-7
 *O2             2.473-11
 *Si             8.8670-3
 SiC             1.3279-4
 SiC2            1.2067-3
 SiH             3.8131-5
 SiH2            3.2443-8
 SiH3            1.025-11
 SiH4            3.703-15
 SiO             8.0395-6
 SiO2            7.389-13
 Si2             4.9995-7
 Si2C            2.0612-7
 Si3             1.427-11

  * THERMODYNAMIC PROPERTIES FITTED TO 20000.K