

         NASA-GLENN CHEMICAL EQUILIBRIUM PROGRAM CEA2, FEBRUARY 5, 2004
                   BY  BONNIE MCBRIDE AND SANFORD GORDON
      REFS: NASA RP-1311, PART I, 1994 AND NASA RP-1311, PART II, 1996

 *******************************************************************************

  
 ### CEA analysis performed on Wed 26-Oct-2022 10:40:41
  
 # Problem Type: "Assigned Temperature and Pressure"
  
 prob case=test___________6590 tp
  
 # Pressure (1 value):
 p,atm= 1
 # Temperature (21 values):
 t,k= 2000, 2100, 2200, 2300, 2400, 2500, 2600, 2700, 2800, 2900, 3000, 3100, 320
 0, 3300, 3400, 3500, 3600, 3700, 3800, 3900, 4000
  
 # You selected the following reactants:
 reac
 name C6H5OH,phenol    mole= 90.0000
 name Si               mole= 10.0000
  
 # You selected these options for output:
 # short version of output
 output short
 # Proportions of any products will be expressed as Mole Fractions.
 # Heat will be expressed as siunits
 output siunits
 # Trace variable:
 output trace=1e-16
  
 # Input prepared by this script:/var/www/sites/cearun.grc.nasa.gov/cgi-bin/CEARU
 N/prepareInputFile.cgi
  
 ### IMPORTANT:  The following line is the end of your CEA input file!
 end

               THERMODYNAMIC EQUILIBRIUM PROPERTIES AT ASSIGNED

                           TEMPERATURE AND PRESSURE

 CASE = test___________

             REACTANT                       MOLES         ENERGY      TEMP
                                                         KJ/KG-MOL      K
 NAME        C6H5OH,phenol               90.0000000         0.000      0.000
 NAME        Si                          10.0000000         0.000      0.000

 O/F=    0.00000  %FUEL=  0.000000  R,EQ.RATIO=15.222222  PHI,EQ.RATIO= 0.000000

 THERMODYNAMIC PROPERTIES

 P, BAR            1.0132   1.0132   1.0132   1.0132   1.0132   1.0132   1.0132   1.0132
 T, K             2000.00  2100.00  2200.00  2300.00  2400.00  2500.00  2600.00  2700.00
 RHO, KG/CU M    1.4805-1 1.4090-1 1.3434-1 1.2825-1 1.2250-1 1.1691-1 1.1116-1 1.0531-1
 H, KJ/KG         2898.77  3194.08  3503.90  3835.95  4204.72  4641.61  5221.28  5935.09
 U, KJ/KG         2214.38  2474.96  2749.65  3045.87  3377.58  3774.93  4309.75  4972.89
 G, KJ/KG        -18778.6 -19869.7 -20975.2 -22095.2 -23230.4 -24382.1 -25553.8 -26751.8
 S, KJ/(KG)(K)    10.8387  10.9828  11.1269  11.2744  11.4313  11.6095  11.8366  12.1063

 M, (1/n)          24.298   24.280   24.252   24.205   24.125   23.984   23.716   23.331
 MW, MOL WT        10.798   10.796   10.795   10.796   10.797   10.800   10.806   10.829
 (dLV/dLP)t      -1.00063 -1.00090 -1.00145 -1.00246 -1.00435 -1.00816 -1.01649 -1.01600
 (dLV/dLT)p        1.0111   1.0190   1.0329   1.0573   1.1030   1.1967   1.4068   1.3352
 Cp, KJ/(KG)(K)    2.8977   3.0161   3.1927   3.4709   3.9530   4.8991   6.9787   6.0375
 GAMMAs            1.1365   1.1325   1.1275   1.1213   1.1132   1.1027   1.0904   1.0980
 SON VEL,M/SEC      881.9    902.4    922.2    941.2    959.6    977.6    997.0   1027.8

 MOLE FRACTIONS

 *C              1.334-11 1.038-10 6.703-10 3.679 -9 1.753 -8 7.390 -8 2.803 -7 9.698 -7
 *CH             6.244-11 3.401-10 1.586 -9 6.462 -9 2.339 -8 7.631 -8 2.274 -7 6.253 -7
 CH2             1.1276-8 3.3470-8 8.9767-8 2.2031-7 4.9991-7 1.0575-6 2.1001-6 3.9420-6
 CH3             4.0406-6 5.9091-6 8.3247-6 1.1341-5 1.4979-5 1.9209-5 2.3915-5 2.8972-5
 CH2OH           1.057-12 1.353-12 1.688-12 2.060-12 2.458-12 2.866-12 3.251-12 3.620-12
 CH3O            1.027-13 1.479-13 2.060-13 2.784-13 3.655-13 4.658-13 5.746-13 6.924-13
 CH4             1.0940-4 8.4927-5 6.7416-5 5.4483-5 4.4625-5 3.6854-5 3.0483-5 2.5202-5
 CH3OH           3.490-12 2.604-12 1.993-12 1.555-12 1.231-12 9.823-13 7.818-13 6.240-13
 *CO             1.1005-1 1.0979-1 1.0950-1 1.0920-1 1.0888-1 1.0854-1 1.0821-1 1.0881-1
 *CO2            7.0784-7 4.4744-7 2.9545-7 2.0254-7 1.4335-7 1.0421-7 7.7323-8 5.9337-8
 COOH            2.725-13 2.865-13 3.002-13 3.133-13 3.254-13 3.355-13 3.419-13 3.499-13
 *C2             1.010-12 1.069-11 9.104-11 6.426-10 3.851 -9 2.001 -8 9.196 -8 3.796 -7
 C2H             9.0195-9 4.4925-8 1.9306-7 7.2966-7 2.4644-6 7.5404-6 2.1162-5 5.5043-5
 C2H2,acetylene  2.5632-4 4.8134-4 8.5184-4 1.4309-3 2.2945-3 3.5283-3 5.2215-3 7.4679-3
 C2H2,vinylidene 2.3644-8 7.4038-8 2.0825-7 5.3326-7 1.2569-6 2.7512-6 5.6339-6 1.0873-5
 CH2CO,ketene    4.7963-8 5.6642-8 6.5808-8 7.5302-8 8.4892-8 9.4221-8 1.0268-7 1.1085-7
 O(CH)2O         4.740-16 5.034-16 5.320-16 5.590-16 5.832-16 6.019-16 6.109-16 6.191-16
 C2H3,vinyl      1.6402-8 3.6756-8 7.6288-8 1.4797-7 2.7007-7 4.6617-7 7.6321-7 1.1910-6
 CH3CO,acetyl    7.698-12 1.019-11 1.315-11 1.655-11 2.035-11 2.440-11 2.844-11 3.251-11
 C2H4            1.3291-6 1.4638-6 1.5933-6 1.7139-6 1.8204-6 1.9054-6 1.9571-6 1.9731-6
 C2H4O,ethylen-o 3.901-16 4.517-16 5.159-16 5.808-16 6.437-16 7.002-16 7.424-16 7.732-16
 CH3CHO,ethanal  5.102-12 4.232-12 3.564-12 3.037-12 2.605-12 2.237-12 1.905-12 1.619-12
 C2H5            1.417-10 1.870-10 2.399-10 2.995-10 3.640-10 4.300-10 4.913-10 5.435-10
 C2H6            5.160-10 3.798-10 2.865-10 2.202-10 1.714-10 1.341-10 1.042-10 8.031-11
 C2H5OH          1.028-16 6.959-17 4.871-17 3.500-17 2.561-17 1.889-17 1.385-17 1.014-17
 C2O             2.198-10 7.006-10 2.010 -9 5.260 -9 1.271 -8 2.860 -8 6.048 -8 1.220 -7
 *C3             1.216-11 1.267-10 1.062 -9 7.370 -9 4.337 -8 2.212 -7 9.974 -7 4.038 -6
 C3H3,1-propynl  6.645-12 2.266-11 6.884-11 1.890-10 4.740-10 1.096 -9 2.348 -9 4.698 -9
 C3H3,2-propynl  3.5113-8 8.7553-8 2.0020-7 4.2412-7 8.3910-7 1.5595-6 2.7329-6 4.5408-6
 C3H4,allene     5.2474-9 8.6663-9 1.3631-8 2.0517-8 2.9642-8 4.1165-8 5.4880-8 7.0421-8
 C3H4,propyne    1.2949-8 2.0948-8 3.2333-8 4.7826-8 6.8002-8 9.3048-8 1.2236-7 1.5501-7
 C3H4,cyclo-     2.275-11 4.795-11 9.417-11 1.736-10 3.020-10 4.976-10 7.769-10 1.154 -9
 C3H5,allyl      4.129-11 6.348-11 9.358-11 1.327-10 1.814-10 2.389-10 3.020-10 3.669-10
 C3H6,propylene  5.756-11 5.715-11 5.658-11 5.572-11 5.441-11 5.242-11 4.939-11 4.544-11
 C3H6,cyclo-     2.054-13 2.264-13 2.467-13 2.655-13 2.814-13 2.925-13 2.958-13 2.908-13
 C3H7,n-propyl   1.691-15 2.107-15 2.563-15 3.043-15 3.521-15 3.954-15 4.268-15 4.430-15
 C3H7,i-propyl   1.375-15 1.653-15 1.945-15 2.240-15 2.520-15 2.758-15 2.907-15 2.950-15
 C3H8            6.198-15 4.279-15 3.043-15 2.213-15 1.632-15 1.208-15 8.839-16 6.365-16
 C3O2            1.029-11 1.543-11 2.232-11 3.129-11 4.264-11 5.658-11 7.311-11 9.371-11
 *C4             6.237-16 1.167-14 1.670-13 1.892-12 1.750-11 1.356-10 9.008-10 5.231 -9
 C4H2,butadiyne  7.8910-8 2.8071-7 8.8698-7 2.5266-6 6.5677-6 1.5734-5 3.5024-5 7.3029-5
 C4H4,1,3-cyclo- 4.571-14 1.311-13 3.408-13 8.109-13 1.782-12 3.641-12 6.928-12 1.236-11
 C4H6,butadiene  1.835-12 2.460-12 3.216-12 4.104-12 5.109-12 6.191-12 7.253-12 8.218-12
 C4H6,1butyne    1.694-13 2.573-13 3.747-13 5.247-13 7.070-13 9.153-13 1.132-12 1.339-12
 C4H6,2butyne    1.314-13 1.863-13 2.548-13 3.369-13 4.310-13 5.323-13 6.305-13 7.171-13
 C4H6,cyclo-     4.063-15 6.025-15 8.594-15 1.182-14 1.569-14 2.006-14 2.455-14 2.879-14
 C4H8,1-butene   6.391-16 5.943-16 5.540-16 5.156-16 4.765-16 4.340-16 3.844-16 3.302-16
 C4H8,cis2-buten 2.528-16 2.274-16 2.057-16 1.862-16 1.677-16 1.492-16 1.292-16 1.088-16
 C4H8,tr2-butene 2.842-16 2.559-16 2.316-16 2.098-16 1.892-16 1.685-16 1.461-16 1.232-16
 C4H8,isobutene  3.102-16 2.748-16 2.452-16 2.192-16 1.953-16 1.719-16 1.476-16 1.231-16
 *C5             2.392-15 4.743-14 7.143-13 8.469-12 8.152-11 6.541-10 4.483 -9 2.675 -8
 C5H6,1,3cyclo-  4.399-14 6.139-14 8.286-14 1.083-13 1.372-13 1.680-13 1.974-13 2.229-13
 C6H2            2.561-11 1.723-10 9.712-10 4.690 -9 1.977 -8 7.382 -8 2.474 -7 7.531 -7
 C6H5,phenyl     3.141-15 7.798-15 1.775-14 3.740-14 7.341-14 1.347-13 2.310-13 3.720-13
 C6H6            2.002-13 2.386-13 2.790-13 3.197-13 3.587-13 3.926-13 4.159-13 4.266-13
 C7H7,benzyl     1.305-17 2.286-17 3.793-17 5.983-17 8.985-17 1.283-16 1.729-16 2.204-16
 *H              6.2187-4 1.1910-3 2.1513-3 3.6929-3 6.0616-3 9.5666-3 1.4596-2 2.1629-2
 HCO             5.4967-8 8.4497-8 1.2480-7 1.7792-7 2.4576-7 3.2973-7 4.3022-7 5.5182-7
 HCCO            2.143-10 4.882-10 1.031 -9 2.037 -9 3.793 -9 6.700 -9 1.126 -8 1.827 -8
 *H2             3.3234-1 3.3183-1 3.3099-1 3.2966-1 3.2764-1 3.2467-1 3.2049-1 3.1526-1
 HCHO,formaldehy 3.4491-8 3.4111-8 3.3743-8 3.3350-8 3.2885-8 3.2280-8 3.1419-8 3.0558-8
 HCOOH           9.759-13 6.495-13 4.495-13 3.213-13 2.356-13 1.760-13 1.327-13 1.022-13
 H2O             9.7920-6 6.6780-6 4.7135-6 3.4245-6 2.5478-6 1.9308-6 1.4808-6 1.1556-6
 *O              2.490-12 7.263-12 1.926-11 4.702-11 1.067-10 2.273-10 4.574-10 8.829-10
 *OH             2.0666-9 3.2032-9 4.7730-9 6.8687-9 9.5805-9 1.2984-8 1.7118-8 2.2190-8
 *O2             3.161-17 6.226-17 1.156-16 2.039-16 3.433-16 5.543-16 8.596-16 1.306-15
 *Si             1.1051-6 4.8300-6 1.8448-5 6.2696-5 1.9253-4 5.4154-4 1.4141-3 2.6323-3
 SiC             1.494-11 1.441-10 1.129 -9 7.380 -9 4.123 -8 2.009 -7 8.699 -7 2.584 -6
 SiC2            1.0081-7 7.1791-7 4.2619-6 2.1611-5 9.5548-5 3.7505-4 1.3296-3 3.2791-3
 SiH             1.0665-6 3.6453-6 1.1122-5 3.0746-5 7.7966-5 1.8329-4 4.0344-4 6.3717-4
 SiH2            2.2084-7 5.7859-7 1.3878-6 3.0808-6 6.3866-6 1.2451-5 2.2963-5 3.0635-5
 SiH3            9.6935-9 2.0787-8 4.1503-8 7.7782-8 1.3770-7 2.3132-7 3.6964-7 4.2906-7
 SiH4            1.2915-8 1.7108-8 2.2055-8 2.7720-8 3.3993-8 4.0645-8 4.7247-8 4.0636-8
 SiO             9.8752-4 1.2371-3 1.5174-3 1.8272-3 2.1654-3 2.5303-3 2.9206-3 2.5567-3
 SiO2            3.078-10 2.925-10 2.796-10 2.687-10 2.592-10 2.504-10 2.415-10 1.796-10
 Si2             2.4399-9 1.8274-8 1.1365-7 6.0167-7 2.7693-6 1.1287-5 4.1451-5 8.0332-5
 Si2C            8.2127-8 5.5798-7 3.1685-6 1.5404-5 6.5434-5 2.4720-4 8.4475-4 1.5286-3
 Si3             4.185-11 4.333-10 3.611 -9 2.494 -8 1.463 -7 7.442 -7 3.350 -6 5.952 -6
 C(gr)           5.4427-1 5.4427-1 5.4408-1 5.4362-1 5.4278-1 5.4152-1 5.3990-1 5.3587-1
 SiC(b)          1.1349-2 1.1089-2 1.0777-2 1.0359-2 9.6635-3 8.1793-3 4.4736-3 0.0000 0

  * THERMODYNAMIC PROPERTIES FITTED TO 20000.K

               THERMODYNAMIC EQUILIBRIUM PROPERTIES AT ASSIGNED

                           TEMPERATURE AND PRESSURE

 CASE = test___________

             REACTANT                       MOLES         ENERGY      TEMP
                                                         KJ/KG-MOL      K
 NAME        C6H5OH,phenol               90.0000000         0.000      0.000
 NAME        Si                          10.0000000         0.000      0.000

 O/F=    0.00000  %FUEL=  0.000000  R,EQ.RATIO=15.222222  PHI,EQ.RATIO= 0.000000

 THERMODYNAMIC PROPERTIES

 P, BAR            1.0132   1.0132   1.0132   1.0132   1.0132   1.0132   1.0132   1.0132
 T, K             2800.00  2900.00  3000.00  3100.00  3200.00  3300.00  3400.00  3500.00
 RHO, KG/CU M    1.0019-1 9.5241-2 9.0405-2 8.5613-2 8.0787-2 7.5824-2 7.0557-2 6.4681-2
 H, KJ/KG         6569.92  7271.75  8055.20  8948.24  9996.38  11277.9  12944.4  15316.3
 U, KJ/KG         5558.61  6207.88  6934.41  7764.72  8742.15  9941.54  11508.3  13749.8
 G, KJ/KG        -27973.8 -29219.7 -30491.1 -31790.4 -33120.7 -34487.2 -35897.8 -37366.5
 S, KJ/(KG)(K)    12.3371  12.5833  12.8488  13.1415  13.4741  13.8682  14.3654  15.0522

 M, (1/n)          23.020   22.664   22.255   21.778   21.213   20.532   19.685   18.577
 MW, MOL WT        10.870   10.913   10.956   11.002   11.057   11.140   11.293   11.619
 (dLV/dLP)t      -1.02017 -1.02535 -1.03211 -1.04094 -1.05239 -1.06756 -1.08916 -1.12354
 (dLV/dLT)p        1.4047   1.4869   1.5934   1.7363   1.9307   2.2103   2.6524   3.4282
 Cp, KJ/(KG)(K)    6.6684   7.3918   8.3234   9.6110  11.4760  14.3924  19.4384  29.1177
 GAMMAs            1.0949   1.0921   1.0891   1.0855   1.0810   1.0752   1.0680   1.0606
 SON VEL,M/SEC     1052.3   1077.9   1104.9   1133.5   1164.4   1198.6   1238.5   1289.0

 MOLE FRACTIONS

 *C              3.0685-6 8.9920-6 2.4608-5 6.3389-5 1.5491-4 3.6227-4 8.2012-4 1.8319-3
 *CH             1.5949-6 3.8009-6 8.5131-6 1.8015-5 3.6206-5 6.9492-5 1.2835-4 2.3104-4
 CH2             7.0292-6 1.1924-5 1.9292-5 2.9824-5 4.4132-5 6.2627-5 8.5483-5 1.1292-4
 CH3             3.4321-5 3.9555-5 4.4291-5 4.8093-5 5.0542-5 5.1300-5 5.0196-5 4.7311-5
 CH2OH           4.004-12 4.307-12 4.499-12 4.555-12 4.456-12 4.197-12 3.786-12 3.247-12
 CH3O            8.252-13 9.525-13 1.064-12 1.148-12 1.193-12 1.191-12 1.135-12 1.027-12
 CH4             2.0934-5 1.7270-5 1.4080-5 1.1283-5 8.8366-6 6.7246-6 4.9396-6 3.4758-6
 CH3OH           5.058-13 4.052-13 3.193-13 2.463-13 1.848-13 1.339-13 9.272-14 6.057-14
 *CO             1.1032-1 1.1143-1 1.1226-1 1.1293-1 1.1360-1 1.1450-1 1.1610-1 1.1947-1
 *CO2            4.7310-8 3.8053-8 3.0870-8 2.5253-8 2.0822-8 1.7295-8 1.4471-8 1.2215-8
 COOH            3.635-13 3.717-13 3.744-13 3.715-13 3.629-13 3.486-13 3.285-13 3.028-13
 *C2             1.4137-6 4.8167-6 1.5159-5 4.4463-5 1.2262-4 3.2101-4 8.0757-4 1.9911-3
 C2H             1.3322-4 3.0219-4 6.4600-4 1.3080-3 2.5209-3 4.6490-3 8.2651-3 1.4345-2
 C2H2,acetylene  1.0349-2 1.3889-2 1.8062-2 2.2771-2 2.7841-2 3.3035-2 3.8114-2 4.2981-2
 C2H2,vinylidene 1.9879-5 3.4498-5 5.6975-5 8.9743-5 1.3508-4 1.9468-4 2.6950-4 3.6061-4
 CH2CO,ketene    1.1946-7 1.2619-7 1.3061-7 1.3231-7 1.3099-7 1.2653-7 1.1898-7 1.0870-7
 O(CH)2O         6.355-16 6.388-16 6.284-16 6.043-16 5.666-16 5.164-16 4.550-16 3.843-16
 C2H3,vinyl      1.7842-6 2.5578-6 3.5097-6 4.6080-6 5.7843-6 6.9356-6 7.9363-6 8.6673-6
 CH3CO,acetyl    3.687-11 4.062-11 4.343-11 4.496-11 4.494-11 4.321-11 3.977-11 3.478-11
 C2H4            1.9663-6 1.9181-6 1.8247-6 1.6860-6 1.5062-6 1.2944-6 1.0642-6 8.3110-7
 C2H4O,ethylen-o 8.026-16 8.099-16 7.920-16 7.477-16 6.782-16 5.872-16 4.813-16 3.685-16
 CH3CHO,ethanal  1.391-12 1.176-12 9.741-13 7.873-13 6.169-13 4.654-13 3.349-13 2.268-13
 C2H5            5.889-10 6.171-10 6.231-10 6.031-10 5.565-10 4.862-10 3.988-10 3.035-10
 C2H6            6.206-11 4.722-11 3.512-11 2.531-11 1.753-11 1.153-11 7.124-12 4.051-12
 C2O             2.3631-7 4.3610-7 7.7123-7 1.3136-6 2.1654-6 3.4718-6 5.4496-6 8.4677-6
 *C3             1.4740-5 4.9226-5 1.5183-4 4.3646-4 1.1798-3 3.0273-3 7.4662-3 1.8051-2
 C3H3,1-propynl  8.8615-9 1.5738-8 2.6365-8 4.1705-8 6.2323-8 8.7997-8 1.1740-7 1.4815-7
 C3H3,2-propynl  7.2087-6 1.0905-5 1.5729-5 2.1632-5 2.8357-5 3.5403-5 4.2073-5 4.7605-5
 C3H4,allene     8.7777-8 1.0542-7 1.2176-7 1.3484-7 1.4272-7 1.4380-7 1.3728-7 1.2341-7
 C3H4,propyne    1.9093-7 2.2677-7 2.5918-7 2.8423-7 2.9808-7 2.9775-7 2.8192-7 2.5147-7
 C3H4,cyclo-     1.6473-9 2.2450-9 2.9176-9 3.6083-9 4.2356-9 4.7037-9 4.9208-9 4.8224-9
 C3H5,allyl      4.338-10 4.934-10 5.378-10 5.593-10 5.521-10 5.141-10 4.479-10 3.608-10
 C3H6,propylene  4.140-11 3.670-11 3.147-11 2.591-11 2.032-11 1.503-11 1.035-11 6.526-12
 C3H6,cyclo-     2.820-13 2.650-13 2.401-13 2.083-13 1.715-13 1.329-13 9.574-14 6.295-14
 C3H7,n-propyl   4.501-15 4.391-15 4.086-15 3.598-15 2.971-15 2.275-15 1.592-15 9.936-16
 C3H7,i-propyl   2.936-15 2.809-15 2.566-15 2.222-15 1.805-15 1.362-15 9.389-16 5.783-16
 C3H8            4.598-16 3.247-16 2.219-16 1.451-16 8.970-17 5.163-17 2.713-17 1.263-17
 C3O2            1.202-10 1.504-10 1.842-10 2.214-10 2.617-10 3.046-10 3.499-10 3.980-10
 *C4             2.6745-8 1.2238-7 5.0714-7 1.9240-6 6.7522-6 2.2163-5 6.8968-5 2.0775-4
 C4H2,butadiyne  1.4348-4 2.6624-4 4.6807-4 7.8164-4 1.2427-3 1.8854-3 2.7391-3 3.8353-3
 C4H4,1,3-cyclo- 2.091-11 3.336-11 5.022-11 7.124-11 9.509-11 1.191-10 1.395-10 1.520-10
 C4H6,butadiene  9.145-12 9.836-12 1.017-11 1.005-11 9.418-12 8.294-12 6.786-12 5.067-12
 C4H6,1butyne    1.539-12 1.693-12 1.774-12 1.760-12 1.643-12 1.430-12 1.147-12 8.342-13
 C4H6,2butyne    7.953-13 8.467-13 8.612-13 8.317-13 7.573-13 6.445-13 5.068-13 3.618-13
 C4H6,cyclo-     3.287-14 3.597-14 3.755-14 3.717-14 3.465-14 3.015-14 2.422-14 1.765-14
 C4H8,1-butene   2.809-16 2.309-16 1.818-16 1.357-16 9.490-17 6.131-17 3.591-17 1.852-17
 C4H8,tr2-butene 1.029-16 8.319-17 6.449-17 4.744-17 3.273-17 2.088-17 1.208-17 6.160-18
 C4H8,isobutene  1.020-16 8.175-17 6.287-17 4.591-17 3.145-17 1.993-17 1.147-17 5.813-18
 *C5             1.4008-7 6.5451-7 2.7621-6 1.0646-5 3.7875-5 1.2579-4 3.9535-4 1.2009-3
 C5H6,1,3cyclo-  2.457-13 2.601-13 2.632-13 2.530-13 2.293-13 1.943-13 1.522-13 1.083-13
 C6H2            2.1013-6 5.4018-6 1.2867-5 2.8531-5 5.9140-5 1.1506-4 2.1114-4 3.6828-4
 C6H5,phenyl     5.709-13 8.268-13 1.128-12 1.447-12 1.737-12 1.942-12 2.008-12 1.899-12
 C6H6            4.297-13 4.183-13 3.912-13 3.492-13 2.952-13 2.343-13 1.725-13 1.157-13
 C7H7,benzyl     2.712-16 3.161-16 3.473-16 3.573-16 3.413-16 2.996-16 2.383-16 1.679-16
 *H              3.1090-2 4.3483-2 5.9271-2 7.8880-2 1.0270-1 1.3120-1 1.6528-1 2.0755-1
 HCO             6.9954-7 8.6481-7 1.0442-6 1.2331-6 1.4255-6 1.6148-6 1.7956-6 1.9680-6
 HCCO            2.8797-8 4.3596-8 6.3589-8 8.9595-8 1.2220-7 1.6168-7 2.0803-7 2.6159-7
 *H2             3.0880-1 3.0019-1 2.8908-1 2.7531-1 2.5889-1 2.4018-1 2.1993-1 1.9954-1
 HCHO,formaldehy 2.9899-8 2.8878-8 2.7500-8 2.5778-8 2.3738-8 2.1425-8 1.8907-8 1.6274-8
 HCOOH           8.134-14 6.456-14 5.097-14 3.993-14 3.091-14 2.354-14 1.752-14 1.263-14
 H2O             9.2210-7 7.3696-7 5.8838-7 4.6792-7 3.6954-7 2.8886-7 2.2275-7 1.6892-7
 *O              1.6426-9 2.9243-9 5.0069-9 8.2836-9 1.3301-8 2.0828-8 3.2007-8 4.8793-8
 *OH             2.8437-8 3.5544-8 4.3400-8 5.1832-8 6.0604-8 6.9446-8 7.8120-8 8.6620-8
 *O2             1.966-15 2.857-15 4.030-15 5.533-15 7.418-15 9.733-15 1.253-14 1.588-14
 *Si             3.0344-3 3.1554-3 3.0349-3 2.7803-3 2.4850-3 2.2023-3 1.9579-3 1.7683-3
 SiC             4.5925-6 7.1401-6 9.9870-6 1.2977-5 1.6082-5 1.9361-5 2.2946-5 2.7158-5
 SiC2            4.9012-3 6.4824-3 7.7946-3 8.7901-3 9.5380-3 1.0134-2 1.0679-2 1.1316-2
 SiH             6.2887-4 5.6243-4 4.6641-4 3.6851-4 2.8349-4 2.1521-4 1.6248-4 1.2282-4
 SiH2            2.5805-5 1.9805-5 1.4141-5 9.6287-6 6.3735-6 4.1446-6 2.6582-6 1.6825-6
 SiH3            3.1658-7 2.1335-7 1.3385-7 7.9978-8 4.6291-8 2.6160-8 1.4439-8 7.7428-9
 SiH4            2.265 -8 1.170 -8 5.683 -9 2.650 -9 1.203 -9 5.338-10 2.306-10 9.590-11
 SiO             1.4763-3 8.0209-4 4.1866-4 2.1533-4 1.1133-4 5.8538-5 3.1487-5 1.7393-5
 SiO2            9.007-11 4.274-11 1.958-11 8.875-12 4.055-12 1.886-12 8.944-13 4.314-13
 Si2             6.2215-5 4.0544-5 2.3283-5 1.2443-5 6.4638-6 3.3521-6 1.7603-6 9.4401-7
 Si2C            1.1088-3 6.7859-4 3.6687-4 1.8500-4 9.0864-5 4.4635-5 2.2239-5 1.1333-5
 Si3             2.752 -6 1.007 -6 3.116 -7 8.822 -8 2.434 -8 6.783 -9 1.942 -9 5.731-10
 C(gr)           5.2780-1 5.1850-1 5.0771-1 4.9483-1 4.7879-1 4.5746-1 4.2632-1 3.7454-1

  * THERMODYNAMIC PROPERTIES FITTED TO 20000.K