

         NASA-GLENN CHEMICAL EQUILIBRIUM PROGRAM CEA2, FEBRUARY 5, 2004
                   BY  BONNIE MCBRIDE AND SANFORD GORDON
      REFS: NASA RP-1311, PART I, 1994 AND NASA RP-1311, PART II, 1996

 *******************************************************************************

  
 ### CEA analysis performed on Wed 26-Oct-2022 10:48:54
  
 # Problem Type: "Assigned Temperature and Pressure"
  
 prob case=test___________6590 tp
  
 # Pressure (1 value):
 p,atm= 1
 # Temperature (16 values):
 t,k= 3600, 3700, 3800, 3900, 4000, 4100, 4200, 4300, 4400, 4500, 4600, 4700, 480
 0, 4900, 5000, 5100
  
 # You selected the following reactants:
 reac
 name C6H5OH,phenol    mole= 90.0000
 name Si               mole= 10.0000
  
 # You selected these options for output:
 # short version of output
 output short
 # Proportions of any products will be expressed as Mole Fractions.
 # Heat will be expressed as siunits
 output siunits
 # Trace variable:
 output trace=1e-16
  
 # Input prepared by this script:/var/www/sites/cearun.grc.nasa.gov/cgi-bin/CEARU
 N/prepareInputFile.cgi
  
 ### IMPORTANT:  The following line is the end of your CEA input file!
 end

               THERMODYNAMIC EQUILIBRIUM PROPERTIES AT ASSIGNED

                           TEMPERATURE AND PRESSURE

 CASE = test___________

             REACTANT                       MOLES         ENERGY      TEMP
                                                         KJ/KG-MOL      K
 NAME        C6H5OH,phenol               90.0000000         0.000      0.000
 NAME        Si                          10.0000000         0.000      0.000

 O/F=    0.00000  %FUEL=  0.000000  R,EQ.RATIO=15.222222  PHI,EQ.RATIO= 0.000000

 THERMODYNAMIC PROPERTIES

 P, BAR            1.0132   1.0132   1.0132   1.0132   1.0132   1.0132   1.0132   1.0132
 T, K             3600.00  3700.00  3800.00  3900.00  4000.00  4100.00  4200.00  4300.00
 RHO, KG/CU M    5.7651-2 4.8553-2 4.4596-2 4.1231-2 3.8353-2 3.5863-2 3.3675-2 3.1717-2
 H, KJ/KG         19123.1  26242.4  28525.2  30734.7  32870.2  34950.5  37007.0  39076.6
 U, KJ/KG         17365.5  24155.6  26253.1  28277.2  30228.4  32125.2  33998.1  35881.9
 G, KJ/KG        -38920.7 -40619.5 -42457.3 -44354.3 -46307.0 -48312.3 -50367.9 -52472.7
 S, KJ/(KG)(K)    16.1233  18.0708  18.6796  19.2536  19.7943  20.3080  20.8036  21.2905

 M, (1/n)          17.031   14.741   13.906   13.195   12.589   12.066   11.606   11.191
 MW, MOL WT        12.402   14.741   13.906   13.195   12.589   12.066   11.606   11.191
 (dLV/dLP)t      -1.18543 -1.14642 -1.13886 -1.12964 -1.12025 -1.11182 -1.10516 -1.10065
 (dLV/dLT)p        4.9184   3.2675   3.1048   2.9358   2.7826   2.6591   2.5727   2.5241
 Cp, KJ/(KG)(K)   49.8014  23.1299  22.4815  21.7083  21.0354  20.6239  20.5678  20.8837
 GAMMAs            1.0545   1.1286   1.1332   1.1371   1.1401   1.1421   1.1434   1.1442
 SON VEL,M/SEC     1361.4   1534.7   1604.6   1671.6   1735.5   1796.3   1854.8   1911.9

 MOLE FRACTIONS

 *C              4.1970-3 1.0925-2 1.6223-2 2.3373-2 3.2786-2 4.4888-2 6.0073-2 7.8645-2
 *CH             4.1666-4 8.1461-4 1.0059-3 1.1945-3 1.3709-3 1.5267-3 1.6553-3 1.7515-3
 CH2             1.4665-4 1.9788-4 1.8744-4 1.6990-4 1.4822-4 1.2516-4 1.0278-4 8.2416-5
 CH3             4.3120-5 3.9210-5 2.7872-5 1.8896-5 1.2301-5 7.7414-6 4.7396-6 2.8382-6
 CH2OH           2.623-12 2.002-12 1.609-12 1.242-12 9.248-13 6.683-13 4.711-13 3.258-13
 CH3O            8.727-13 6.993-13 5.891-13 4.756-13 3.700-13 2.788-13 2.047-13 1.472-13
 CH4             2.3243-6 1.4882-6 8.2889-7 4.3864-7 2.2223-7 1.0867-7 5.1693-8 2.4083-8
 CH3OH           3.654-14 1.994-14 1.272-14 7.752-15 4.535-15 2.566-15 1.414-15 7.640-16
 *CO             1.2753-1 1.5158-1 1.4298-1 1.3567-1 1.2943-1 1.2405-1 1.1932-1 1.1506-1
 *CO2            1.0487-8 9.5485-9 9.3479-9 9.3147-9 9.4224-9 9.6517-9 9.9906-9 1.0434-8
 COOH            2.726-13 2.445-13 2.573-13 2.696-13 2.812-13 2.918-13 3.016-13 3.108-13
 *C2             5.0044-3 1.4206-2 1.8552-2 2.3423-2 2.8736-2 3.4362-2 4.0106-2 4.5691-2
 C2H             2.4981-2 4.7209-2 4.5733-2 4.2709-2 3.8679-2 3.4119-2 2.9394-2 2.4768-2
 C2H2,acetylene  4.8089-2 5.6350-2 3.7864-2 2.4550-2 1.5460-2 9.5056-3 5.7296-3 3.3943-3
 C2H2,vinylidene 4.7386-4 6.4603-4 5.0072-4 3.7151-4 2.6573-4 1.8433-4 1.2456-4 8.2233-5
 CH2CO,ketene    9.6595-8 8.5616-8 5.8953-8 3.9632-8 2.6125-8 1.6949-8 1.0853-8 6.8743-9
 O(CH)2O         3.073-16 2.320-16 1.832-16 1.422-16 1.087-16 8.204-17 6.128-17 4.538-17
 C2H3,vinyl      9.0761-6 9.4058-6 6.1327-6 3.7931-6 2.2444-6 1.2800-6 7.0812-7 3.8177-7
 CH3CO,acetyl    2.864-11 2.225-11 1.475-11 9.396-12 5.787-12 3.466-12 2.029-12 1.166-12
 C2H4            6.1216-7 4.2853-7 2.1017-7 9.7464-8 4.3132-8 1.8378-8 7.5972-9 3.0660-9
 C2H4O,ethylen-o 2.583-16 1.624-16 9.612-17 5.400-17 2.902-17 1.504-17 7.563-18 3.716-18
 CH3CHO,ethanal  1.415-13 7.963-14 4.242-14 2.156-14 1.053-14 4.983-15 2.298-15 1.039-15
 C2H5            2.105-10 1.311-10 6.278-11 2.795-11 1.169-11 4.650-12 1.775-12 6.562-13
 C2H6            2.061-12 9.019-13 3.372-13 1.166-13 3.773-14 1.157-14 3.404-15 9.694-16
 C2O             1.3342-5 2.2916-5 2.4838-5 2.6633-5 2.8313-5 2.9859-5 3.1228-5 3.2354-5
 *C3             4.4500-2 1.2389-1 1.2869-1 1.2942-1 1.2683-1 1.2154-1 1.1398-1 1.0452-1
 C3H3,1-propynl  1.7776-7 2.0942-7 1.2494-7 7.0340-8 3.7748-8 1.9471-8 9.7137-9 4.7062-9
 C3H3,2-propynl  5.1535-5 5.5082-5 2.9969-5 1.5460-5 7.6359-6 3.6398-6 1.6844-6 7.5967-7
 C3H4,allene     1.038 -7 8.232 -8 3.683 -8 1.550 -8 6.204 -9 2.385 -9 8.868-10 3.209-10
 C3H4,propyne    2.100 -7 1.654 -7 7.350 -8 3.074 -8 1.223 -8 4.674 -9 1.729 -9 6.222-10
 C3H4,cyclo-     4.400 -9 3.770 -9 1.814 -9 8.185-10 3.499-10 1.432-10 5.653-11 2.165-11
 C3H5,allyl      2.641-10 1.730-10 7.048-11 2.665-11 9.477-12 3.205-12 1.041-12 3.271-13
 C3H6,propylene  3.657-12 1.753-12 5.792-13 1.763-13 5.014-14 1.350-14 3.479-15 8.665-16
 C3H6,cyclo-     3.673-14 1.830-14 6.271-15 1.977-15 5.816-16 1.617-16 4.300-17 1.103-17
 C3H7,n-propyl   5.324-16 2.305-16 7.536-17 2.231-17 6.074-18 1.544-18 3.718-19 8.572-20
 C3H7,i-propyl   3.060-16 1.309-16 4.230-17 1.239-17 3.337-18 8.402-19 2.004-19 4.578-20
 C3O2            4.525-10 5.368-10 4.434-10 3.687-10 3.089-10 2.604-10 2.205-10 1.870-10
 *C4             6.3070-4 2.1385-3 2.1709-3 2.1166-3 1.9982-3 1.8346-3 1.6397-3 1.4246-3
 C4H2,butadiyne  5.2599-3 7.4613-3 3.9449-3 1.9972-3 9.7765-4 4.6578-4 2.1679-4 9.8686-5
 C4H4,1,3-cyclo- 1.534-10 1.444-10 6.156-11 2.452-11 9.235-12 3.325-12 1.153-12 3.871-13
 C4H6,butadiene  3.356-12 1.898-12 5.987-13 1.740-13 4.732-14 1.220-14 3.018-15 7.217-16
 C4H6,1butyne    5.345-13 2.905-13 8.754-14 2.417-14 6.209-15 1.505-15 3.482-16 7.751-17
 C4H6,2butyne    2.280-13 1.221-13 3.632-14 9.911-15 2.520-15 6.054-16 1.390-16 3.074-17
 C4H6,cyclo-     1.134-14 6.186-15 1.872-15 5.197-16 1.343-16 3.277-17 7.635-18 1.713-18
 *C5             3.6713-3 1.2515-2 1.0341-2 8.2085-3 6.3184-3 4.7383-3 3.4643-3 2.4635-3
 C5H6,1,3cyclo-  6.800-14 3.629-14 8.715-15 1.923-15 3.965-16 7.744-17 1.448-17 2.614-18
 C6H2            6.2124-4 1.0706-3 4.4706-4 1.7742-4 6.7778-5 2.5124-5 9.0677-6 3.1856-6
 C6H5,phenyl     1.617-12 1.220-12 3.023-13 6.928-14 1.493-14 3.065-15 6.048-16 1.153-16
 C6H6            6.869-14 3.475-14 6.429-15 1.097-15 1.756-16 2.677-17 3.924-18 5.566-19
 C7H7,benzyl     1.008-16 4.853-17 7.574-18 1.070-18 1.395-19 1.711-20 1.995-21 2.230-22
 *H              2.6653-1 3.7825-1 4.2557-1 4.6735-1 5.0219-1 5.2943-1 5.4911-1 5.6172-1
 HCO             2.1519-6 2.4648-6 2.4481-6 2.3954-6 2.3131-6 2.2079-6 2.0864-6 1.9543-6
 HCCO            3.2563-7 4.2143-7 3.8084-7 3.3740-7 2.9403-7 2.5266-7 2.1437-7 1.7972-7
 HO2             2.254-17 2.502-17 3.979-17 6.230-17 9.599-17 1.456-16 2.177-16 3.217-16
 *H2             1.8189-1 1.7577-1 1.4981-1 1.2412-1 1.0030-1 7.9371-2 6.1772-2 4.7471-2
 HCHO,formaldehy 1.3673-8 1.1500-8 9.2980-9 7.3511-9 5.6997-9 4.3481-9 3.2738-9 2.4400-9
 HCOOH           8.696-15 5.704-15 4.867-15 4.104-15 3.424-15 2.830-15 2.322-15 1.897-15
 H2O             1.2598-7 9.4739-8 8.5029-8 7.4973-8 6.5029-8 5.5624-8 4.7073-8 3.9556-8
 *O              7.5575-8 1.2792-7 2.0826-7 3.3514-7 5.3287-7 8.3704-7 1.2995-6 1.9956-6
 *OH             9.5829-8 1.1109-7 1.3777-7 1.6812-7 2.0198-7 2.3922-7 2.7985-7 3.2411-7
 *O2             2.003-14 2.627-14 4.484-14 7.648-14 1.300-13 2.200-13 3.700-13 6.193-13
 *Si             1.6617-3 1.7469-3 2.1184-3 2.5690-3 3.0986-3 3.7016-3 4.3657-3 5.0714-3
 SiC             3.2926-5 4.4003-5 5.4263-5 6.6186-5 7.9582-5 9.4040-5 1.0890-4 1.2325-4
 SiC2            1.2360-2 1.4964-2 1.3625-2 1.2348-2 1.1112-2 9.8972-3 8.6946-3 7.5041-3
 SiH             9.4157-5 7.6903-5 8.0066-5 8.2507-5 8.3809-5 8.3712-5 8.2114-5 7.9059-5
 SiH2            1.0529-6 6.6850-7 5.9793-7 5.2386-7 4.4836-7 3.7461-7 3.0572-7 2.4401-7
 SiH3            3.997 -9 1.992 -9 1.544 -9 1.160 -9 8.427-10 5.931-10 4.054-10 2.699-10
 SiH4            3.759-11 1.360-11 8.496-12 5.105-12 2.951-12 1.646-12 8.889-13 4.673-13
 SiO             9.9527-6 6.1543-6 6.0254-6 6.0419-6 6.1522-6 6.3191-6 6.5148-6 6.7183-6
 SiO2            2.106-13 1.054-13 1.129-13 1.249-13 1.414-13 1.623-13 1.879-13 2.185-13
 Si2             5.2284-7 3.1251-7 3.4669-7 3.9027-7 4.4047-7 4.9373-7 5.4572-7 5.9153-7
 Si2C            5.9730-6 3.4006-6 2.9164-6 2.5438-6 2.2322-6 1.9526-6 1.6896-6 1.4369-6
 Si3             1.741-10 5.524-11 5.253-11 5.158-11 5.133-11 5.100-11 5.003-11 4.802-11
 C(gr)           2.7177-1 0.0000 0 0.0000 0 0.0000 0 0.0000 0 0.0000 0 0.0000 0 0.0000 0

  * THERMODYNAMIC PROPERTIES FITTED TO 20000.K

               THERMODYNAMIC EQUILIBRIUM PROPERTIES AT ASSIGNED

                           TEMPERATURE AND PRESSURE

 CASE = test___________

             REACTANT                       MOLES         ENERGY      TEMP
                                                         KJ/KG-MOL      K
 NAME        C6H5OH,phenol               90.0000000         0.000      0.000
 NAME        Si                          10.0000000         0.000      0.000

 O/F=    0.00000  %FUEL=  0.000000  R,EQ.RATIO=15.222222  PHI,EQ.RATIO= 0.000000

 THERMODYNAMIC PROPERTIES

 P, BAR            1.0132   1.0132   1.0132   1.0132   1.0132   1.0132   1.0132   1.0132
 T, K             4400.00  4500.00  4600.00  4700.00  4800.00  4900.00  5000.00  5100.00
 RHO, KG/CU M    2.9936-2 2.8296-2 2.6776-2 2.5368-2 2.4077-2 2.2909-2 2.1870-2 2.0962-2
 H, KJ/KG         41193.9  43382.2  45645.3  47961.6  50282.2  52536.3  54646.1  56546.0
 U, KJ/KG         37809.2  39801.3  41861.0  43967.4  46073.7  48113.3  50013.1  51712.2
 G, KJ/KG        -54626.0 -56828.3 -59080.0 -61381.6 -63732.6 -66131.4 -68574.9 -71058.6
 S, KJ/(KG)(K)    21.7773  22.2690  22.7664  23.2645  23.7531  24.2179  24.6442  25.0205

 M, (1/n)          10.809   10.449   10.107    9.784    9.483    9.211    8.973    8.772
 MW, MOL WT        10.809   10.449   10.107    9.784    9.483    9.211    8.973    8.772
 (dLV/dLP)t      -1.09825 -1.09745 -1.09732 -1.09669 -1.09436 -1.08948 -1.08187 -1.07212
 (dLV/dLT)p        2.5073   2.5099   2.5147   2.5020   2.4541   2.3610   2.2240   2.0570
 Cp, KJ/(KG)(K)   21.5027  22.2702  22.9565  23.2874  23.0034  21.9461  20.1380  17.7966
 GAMMAs            1.1450   1.1463   1.1485   1.1517   1.1563   1.1625   1.1706   1.1809
 SON VEL,M/SEC     1968.6   2026.1   2084.7   2144.8   2206.0   2267.5   2328.8   2389.2

 MOLE FRACTIONS

 *C              1.0074-1 1.2622-1 1.5464-1 1.8514-1 2.1650-1 2.4732-1 2.7617-1 3.0194-1
 *CH             1.8120-3 1.8349-3 1.8202-3 1.7702-3 1.6894-3 1.5843-3 1.4629-3 1.3331-3
 CH2             6.4725-5 4.9908-5 3.7858-5 2.8307-5 2.0909-5 1.5296-5 1.1117-5 8.0523-6
 CH3             1.6696-6 9.6825-7 5.5531-7 3.1592-7 1.7888-7 1.0120-7 5.7427-8 3.2819-8
 CH2OH           2.219-13 1.497-13 1.003-13 6.722-14 4.523-14 3.074-14 2.121-14 1.491-14
 CH3O            1.042-13 7.288-14 5.064-14 3.512-14 2.444-14 1.716-14 1.222-14 8.860-15
 CH4             1.105 -8 5.019 -9 2.265 -9 1.020 -9 4.608-10 2.097-10 9.666-11 4.533-11
 CH3OH           4.073-16 2.154-16 1.137-16 6.026-17 3.227-17 1.759-17 9.812-18 5.629-18
 *CO             1.1112-1 1.0741-1 1.0390-1 1.0057-1 9.7476-2 9.4671-2 9.2213-2 9.0133-2
 *CO2            1.0985-8 1.1660-8 1.2489-8 1.3521-8 1.4831-8 1.6521-8 1.8721-8 2.1584-8
 COOH            3.196-13 3.287-13 3.390-13 3.520-13 3.694-13 3.934-13 4.266-13 4.718-13
 *C2             5.0761-2 5.4901-2 5.7688-2 5.8764-2 5.7929-2 5.5219-2 5.0928-2 4.5561-2
 C2H             2.0418-2 1.6458-2 1.2959-2 9.9571-3 7.4608-3 5.4536-3 3.8954-3 2.7275-3
 C2H2,acetylene  1.9790-3 1.1360-3 6.4200-4 3.5716-4 1.9568-4 1.0572-4 5.6477-5 2.9942-5
 C2H2,vinylidene 5.3139-5 3.3635-5 2.0860-5 1.2678-5 7.5567-6 4.4242-6 2.5516-6 1.4554-6
 CH2CO,ketene    4.313 -9 2.683 -9 1.657 -9 1.018 -9 6.229-10 3.809-10 2.336-10 1.442-10
 C2H3,vinyl      2.0125-7 1.0396-7 5.2708-8 2.6269-8 1.2897-8 6.2554-9 3.0099-9 1.4436-9
 CH3CO,acetyl    6.597-13 3.687-13 2.041-13 1.122-13 6.155-14 3.381-14 1.870-14 1.045-14
 C2H4            1.213 -9 4.725-10 1.815-10 6.900-11 2.602-11 9.782-12 3.683-12 1.397-12
 CH3CHO,ethanal  4.629-16 2.040-16 8.932-17 3.901-17 1.709-17 7.550-18 3.384-18 1.548-18
 C2H5            2.363-13 8.334-14 2.891-14 9.907-15 3.370-15 1.145-15 3.908-16 1.350-16
 C2H6            2.694-16 7.355-17 1.983-17 5.309-18 1.420-18 3.822-19 1.043-19 2.907-20
 C2O             3.3157-5 3.3563-5 3.3510-5 3.2970-5 3.1954-5 3.0517-5 2.8752-5 2.6773-5
 *C3             9.3496-2 8.1316-2 6.8496-2 5.5664-2 4.3498-2 3.2625-2 2.3498-2 1.6303-2
 C3H3,1-propynl  2.219 -9 1.019 -9 4.562-10 1.989-10 8.454-11 3.511-11 1.431-11 5.752-12
 C3H3,2-propynl  3.346 -7 1.440 -7 6.053 -8 2.486 -8 9.977 -9 3.922 -9 1.516 -9 5.794-10
 C3H4,allene     1.133-10 3.917-11 1.326-11 4.398-12 1.434-12 4.606-13 1.466-13 4.653-14
 C3H4,propyne    2.187-10 7.522-11 2.534-11 8.372-12 2.717-12 8.695-13 2.757-13 8.717-14
 C3H4,cyclo-     8.075-12 2.939-12 1.045-12 3.637-13 1.241-13 4.165-14 1.382-14 4.568-15
 C3H5,allyl      9.996-14 2.982-14 8.705-15 2.494-15 7.034-16 1.963-16 5.455-17 1.521-17
 C3H6,propylene  2.099-16 4.970-17 1.155-17 2.644-18 5.990-19 1.352-19 3.062-20 7.016-21
 C3O2            1.584-10 1.336-10 1.120-10 9.314-11 7.688-11 6.302-11 5.138-11 4.175-11
 *C4             1.1992-3 9.7351-4 7.5815-4 5.6341-4 3.9773-4 2.6603-4 1.6869-4 1.0183-4
 C4H2,butadiyne  4.3895-5 1.9031-5 8.0158-6 3.2696-6 1.2886-6 4.9050-7 1.8079-7 6.4875-8
 C4H4,1,3-cyclo- 1.261-13 3.989-14 1.225-14 3.652-15 1.057-15 2.981-16 8.227-17 2.239-17
 C4H6,butadiene  1.678-16 3.805-17 8.433-18 1.831-18 3.908-19 8.239-20 1.729-20 3.644-21
 *C5             1.6960-3 1.1233-3 7.1085-4 4.2672-4 2.4156-4 1.2849-4 6.4248-5 3.0346-5
 C6H2            1.086 -6 3.572 -7 1.126 -7 3.385 -8 9.643 -9 2.599 -9 6.643-10 1.622-10
 *H              5.6808-1 5.6916-1 5.6605-1 5.5990-1 5.5184-1 5.4298-1 5.3424-1 5.2629-1
 HCO             1.8169-6 1.6786-6 1.5436-6 1.4154-6 1.2973-6 1.1916-6 1.0993-6 1.0205-6
 HCCO            1.4888-7 1.2187-7 9.8574-8 7.8811-8 6.2347-8 4.8888-8 3.8085-8 2.9556-8
 HO2             4.714-16 6.876-16 1.004-15 1.474-15 2.193-15 3.319-15 5.134-15 8.121-15
 *H2             3.6154-2 2.7379-2 2.0680-2 1.5627-2 1.1851-2 9.0477-3 6.9725-3 5.4348-3
 HCHO,formaldehy 1.805 -9 1.329 -9 9.765-10 7.183-10 5.310-10 3.959-10 2.988-10 2.289-10
 HCOOH           1.547-15 1.264-15 1.038-15 8.622-16 7.275-16 6.271-16 5.547-16 5.047-16
 H2O             3.3131-8 2.7771-8 2.3398-8 1.9908-8 1.7192-8 1.5138-8 1.3640-8 1.2598-8
 *O              3.0352-6 4.5801-6 6.8723-6 1.0279-5 1.5367-5 2.3013-5 3.4578-5 5.2142-5
 *OH             3.7258-7 4.2639-7 4.8742-7 5.5861-7 6.4430-7 7.5053-7 8.8527-7 1.0585-6
 *O2             1.033-12 1.720-12 2.870-12 4.822-12 8.187-12 1.411-11 2.473-11 4.410-11
 *Si             5.7931-3 6.4997-3 7.1589-3 7.7409-3 8.2240-3 8.5982-3 8.8670-3 9.0446-3
 SiC             1.3601-4 1.4601-4 1.5220-4 1.5387-4 1.5082-4 1.4347-4 1.3279-4 1.2003-4
 SiC2            6.3370-3 5.2145-3 4.1651-3 3.2190-3 2.4023-3 1.7310-3 1.2067-3 8.1746-4
 SiH             7.4707-5 6.9310-5 6.3186-5 5.6684-5 5.0150-5 4.3890-5 3.8131-5 3.3007-5
 SiH2            1.9077-7 1.4636-7 1.1043-7 8.2180-8 6.0537-8 4.4338-8 3.2443-8 2.3825-8
 SiH3            1.756-10 1.120-10 7.033-11 4.364-11 2.689-11 1.656-11 1.025-11 6.415-12
 SiH4            2.402-13 1.213-13 6.045-14 2.991-14 1.478-14 7.349-15 3.703-15 1.902-15
 SiO             6.9148-6 7.0965-6 7.2629-6 7.4219-6 7.5893-6 7.7870-6 8.0395-6 8.3694-6
 SiO2            2.547-13 2.977-13 3.493-13 4.126-13 4.929-13 5.978-13 7.389-13 9.326-13
 Si2             6.2625-7 6.4566-7 6.4717-7 6.3036-7 5.9732-7 5.5213-7 4.9995-7 4.4575-7
 Si2C            1.1943-6 9.6569-7 7.5696-7 5.7392-7 4.2069-7 2.9864-7 2.0612-7 1.3913-7
 Si3             4.480-11 4.043-11 3.519-11 2.951-11 2.388-11 1.870-11 1.427-11 1.069-11

  * THERMODYNAMIC PROPERTIES FITTED TO 20000.K