
 *******************************************************************************

         NASA-GLENN CHEMICAL EQUILIBRIUM PROGRAM CEA2, MAY 21, 2004
                   BY  BONNIE MCBRIDE AND SANFORD GORDON
      REFS: NASA RP-1311, PART I, 1994 AND NASA RP-1311, PART II, 1996

 *******************************************************************************



 problem    phi,eq.ratio=1.1,
       tp   t,k=17000,18000,19000,20000,  p,bar=1,1,1,1,
 react
   fuel=C6H6 moles=1  t,k=300
   oxid=O2 moles=7.5  t,k=300
   oxid=N2 moles=28.2143  t,k=300
 output
      trace=1e-16 siunits short
 end




               THERMODYNAMIC EQUILIBRIUM PROPERTIES AT ASSIGNED

                           TEMPERATURE AND PRESSURE

 CASE =                

             REACTANT                       MOLES         ENERGY      TEMP
                                                         KJ/KG-MOL      K
 FUEL        C6H6                         1.0000000     83032.119    300.000
 OXIDANT     O2                           7.5000000        54.358    300.000
 OXIDANT     N2                          28.2143000        53.881    300.000

 O/F=   11.99177  %FUEL=  7.697178  R,EQ.RATIO= 1.100000  PHI,EQ.RATIO= 1.100000

 THERMODYNAMIC PROPERTIES

 P, BAR            1.0000   1.0000   1.0000   1.0000   1.0000   1.0000   1.0000   1.0000
 T, K            17000.00 18000.00 19000.00 20000.00 17000.00 18000.00 19000.00 20000.00
 RHO, KG/CU M    9.3322-3 8.8137-3 8.3498-3 7.9323-3 9.3322-3 8.8137-3 8.3498-3 7.9323-3
 H, KJ/KG         65261.9  67458.4  69664.8  71880.5  65261.9  67458.4  69664.8  71880.5
 U, KJ/KG         54546.3  56112.4  57688.5  59273.7  54546.3  56112.4  57688.5  59273.7
 G, KJ/KG       -259808.9-278994.1-298301.5-317725.5-259808.9-278994.1-298301.5-317725.5
 S, KJ/(KG)(K)    19.1218  19.2474  19.3667  19.4803  19.1218  19.2474  19.3667  19.4803

 M, (1/n)          13.191   13.191   13.191   13.191   13.191   13.191   13.191   13.191
 (dLV/dLP)t      -1.00002 -1.00001 -1.00001 -1.00001 -1.00002 -1.00001 -1.00001 -1.00001
 (dLV/dLT)p        1.0001   1.0001   1.0001   1.0000   1.0001   1.0001   1.0001   1.0000
 Cp, KJ/(KG)(K)    2.1912   2.2017   2.2111   2.2202   2.1912   2.2017   2.2111   2.2202
 GAMMAs            1.4039   1.4012   1.3988   1.3965   1.4039   1.4012   1.3988   1.3965
 SON VEL,M/SEC     3878.7   3987.2   4093.0   4195.9   3878.7   3987.2   4093.0   4195.9

 MOLE FRACTIONS

 *C              7.7986-2 7.7987-2 7.7987-2 7.7987-2 7.7986-2 7.7987-2 7.7987-2 7.7987-2
 *CH             8.8787-8 7.1759-8 5.8719-8 4.8564-8 8.8787-8 7.1759-8 5.8719-8 4.8564-8
 CH2             4.416-14 3.057-14 2.186-14 1.606-14 4.416-14 3.057-14 2.186-14 1.606-14
 *CN             2.1085-6 1.5174-6 1.1261-6 8.5780-7 2.1085-6 1.5174-6 1.1261-6 8.5780-7
 CNN             1.579-12 9.405-13 5.856-13 3.788-13 1.579-12 9.405-13 5.856-13 3.788-13
 *CO             7.5789-7 5.0248-7 3.4919-7 2.5225-7 7.5789-7 5.0248-7 3.4919-7 2.5225-7
 *CO2            1.825-13 1.008-13 5.938-14 3.695-14 1.825-13 1.008-13 5.938-14 3.695-14
 *C2             1.0893-7 8.3331-8 6.5114-8 5.1793-8 1.0893-7 8.3331-8 6.5114-8 5.1793-8
 C2H             2.439-13 1.515-13 9.822-14 6.605-14 2.439-13 1.515-13 9.822-14 6.605-14
 CCN             3.641-13 2.148-13 1.326-13 8.514-14 3.641-13 2.148-13 1.326-13 8.514-14
 CNC             6.973-13 3.911-13 2.307-13 1.421-13 6.973-13 3.911-13 2.307-13 1.421-13
 C2O             4.171-13 2.311-13 1.353-13 8.306-14 4.171-13 2.311-13 1.353-13 8.306-14
 *C3             7.828-14 4.461-14 2.668-14 1.663-14 7.828-14 4.461-14 2.668-14 1.663-14
 *H              7.7988-2 7.7988-2 7.7988-2 7.7988-2 7.7988-2 7.7988-2 7.7988-2 7.7988-2
 HCN             9.794-13 5.505-13 3.263-13 2.024-13 9.794-13 5.505-13 3.263-13 2.024-13
 HCO             2.499-13 1.489-13 9.304-14 6.058-14 2.499-13 1.489-13 9.304-14 6.058-14
 HNC             1.068-12 6.090-13 3.654-13 2.290-13 1.068-12 6.090-13 3.654-13 2.290-13
 HNO             7.905-13 5.393-13 3.811-13 2.776-13 7.905-13 5.393-13 3.811-13 2.776-13
 HO2             5.255-14 3.815-14 2.854-14 2.191-14 5.255-14 3.815-14 2.854-14 2.191-14
 *H2             4.8576-8 3.9110-8 3.1998-8 2.6535-8 4.8576-8 3.9110-8 3.1998-8 2.6535-8
 H2O             8.115-14 5.437-14 3.788-14 2.728-14 8.115-14 5.437-14 3.788-14 2.728-14
 *N              6.6676-1 6.6677-1 6.6677-1 6.6677-1 6.6676-1 6.6677-1 6.6677-1 6.6677-1
 NCO             8.879-13 4.873-13 2.825-13 1.717-13 8.879-13 4.873-13 2.825-13 1.717-13
 *NH             7.6222-7 6.2007-7 5.1107-7 4.2595-7 7.6222-7 6.2007-7 5.1107-7 4.2595-7
 NH2             5.482-13 3.927-13 2.901-13 2.199-13 5.482-13 3.927-13 2.901-13 2.199-13
 *NO             2.1669-6 1.6155-6 1.2373-6 9.6935-7 2.1669-6 1.6155-6 1.2373-6 9.6935-7
 NO2             2.673-13 1.787-13 1.243-13 8.939-14 2.673-13 1.787-13 1.243-13 8.939-14
 *N2             1.1658-5 7.6877-6 5.3030-6 3.7977-6 1.1658-5 7.6877-6 5.3030-6 3.7977-6
 NCN             1.688-12 9.523-13 5.647-13 3.495-13 1.688-12 9.523-13 5.647-13 3.495-13
 N2O             8.646-13 5.134-13 3.199-13 2.076-13 8.646-13 5.134-13 3.199-13 2.076-13
 N3              1.633-12 9.649-13 5.963-13 3.830-13 1.633-12 9.649-13 5.963-13 3.830-13
 *O              1.7724-1 1.7724-1 1.7724-1 1.7724-1 1.7724-1 1.7724-1 1.7724-1 1.7724-1
 *OH             1.8811-7 1.4945-7 1.2078-7 9.9038-8 1.8811-7 1.4945-7 1.2078-7 9.9038-8
 *O2             8.3309-8 6.5405-8 5.2317-8 4.2515-8 8.3309-8 6.5405-8 5.2317-8 4.2515-8
 O3              7.985-14 6.600-14 5.568-14 4.778-14 7.985-14 6.600-14 5.568-14 4.778-14

  * THERMODYNAMIC PROPERTIES FITTED TO 20000.K









               THERMODYNAMIC EQUILIBRIUM PROPERTIES AT ASSIGNED

                           TEMPERATURE AND PRESSURE

 CASE =                

             REACTANT                       MOLES         ENERGY      TEMP
                                                         KJ/KG-MOL      K
 FUEL        C6H6                         1.0000000     83032.119    300.000
 OXIDANT     O2                           7.5000000        54.358    300.000
 OXIDANT     N2                          28.2143000        53.881    300.000

 O/F=   11.99177  %FUEL=  7.697178  R,EQ.RATIO= 1.100000  PHI,EQ.RATIO= 1.100000

 THERMODYNAMIC PROPERTIES

 P, BAR            1.0000   1.0000   1.0000   1.0000   1.0000   1.0000   1.0000   1.0000
 T, K            17000.00 18000.00 19000.00 20000.00 17000.00 18000.00 19000.00 20000.00
 RHO, KG/CU M    9.3322-3 8.8137-3 8.3498-3 7.9323-3 9.3322-3 8.8137-3 8.3498-3 7.9323-3
 H, KJ/KG         65261.9  67458.4  69664.8  71880.5  65261.9  67458.4  69664.8  71880.5
 U, KJ/KG         54546.3  56112.4  57688.5  59273.7  54546.3  56112.4  57688.5  59273.7
 G, KJ/KG       -259808.9-278994.1-298301.5-317725.5-259808.9-278994.1-298301.5-317725.5
 S, KJ/(KG)(K)    19.1218  19.2474  19.3667  19.4803  19.1218  19.2474  19.3667  19.4803

 M, (1/n)          13.191   13.191   13.191   13.191   13.191   13.191   13.191   13.191
 (dLV/dLP)t      -1.00002 -1.00001 -1.00001 -1.00001 -1.00002 -1.00001 -1.00001 -1.00001
 (dLV/dLT)p        1.0001   1.0001   1.0001   1.0000   1.0001   1.0001   1.0001   1.0000
 Cp, KJ/(KG)(K)    2.1912   2.2017   2.2111   2.2202   2.1912   2.2017   2.2111   2.2202
 GAMMAs            1.4039   1.4012   1.3988   1.3965   1.4039   1.4012   1.3988   1.3965
 SON VEL,M/SEC     3878.7   3987.2   4093.0   4195.9   3878.7   3987.2   4093.0   4195.9

 MOLE FRACTIONS

 *C              7.7986-2 7.7987-2 7.7987-2 7.7987-2 7.7986-2 7.7987-2 7.7987-2 7.7987-2
 *CH             8.8787-8 7.1759-8 5.8719-8 4.8564-8 8.8787-8 7.1759-8 5.8719-8 4.8564-8
 CH2             4.416-14 3.057-14 2.186-14 1.606-14 4.416-14 3.057-14 2.186-14 1.606-14
 *CN             2.1085-6 1.5174-6 1.1261-6 8.5780-7 2.1085-6 1.5174-6 1.1261-6 8.5780-7
 CNN             1.579-12 9.405-13 5.856-13 3.788-13 1.579-12 9.405-13 5.856-13 3.788-13
 *CO             7.5789-7 5.0248-7 3.4919-7 2.5225-7 7.5789-7 5.0248-7 3.4919-7 2.5225-7
 *CO2            1.825-13 1.008-13 5.938-14 3.695-14 1.825-13 1.008-13 5.938-14 3.695-14
 *C2             1.0893-7 8.3331-8 6.5114-8 5.1793-8 1.0893-7 8.3331-8 6.5114-8 5.1793-8
 C2H             2.439-13 1.515-13 9.822-14 6.605-14 2.439-13 1.515-13 9.822-14 6.605-14
 CCN             3.641-13 2.148-13 1.326-13 8.514-14 3.641-13 2.148-13 1.326-13 8.514-14
 CNC             6.973-13 3.911-13 2.307-13 1.421-13 6.973-13 3.911-13 2.307-13 1.421-13
 C2O             4.171-13 2.311-13 1.353-13 8.306-14 4.171-13 2.311-13 1.353-13 8.306-14
 *C3             7.828-14 4.461-14 2.668-14 1.663-14 7.828-14 4.461-14 2.668-14 1.663-14
 *H              7.7988-2 7.7988-2 7.7988-2 7.7988-2 7.7988-2 7.7988-2 7.7988-2 7.7988-2
 HCN             9.794-13 5.505-13 3.263-13 2.024-13 9.794-13 5.505-13 3.263-13 2.024-13
 HCO             2.499-13 1.489-13 9.304-14 6.058-14 2.499-13 1.489-13 9.304-14 6.058-14
 HNC             1.068-12 6.090-13 3.654-13 2.290-13 1.068-12 6.090-13 3.654-13 2.290-13
 HNO             7.905-13 5.393-13 3.811-13 2.776-13 7.905-13 5.393-13 3.811-13 2.776-13
 HO2             5.255-14 3.815-14 2.854-14 2.191-14 5.255-14 3.815-14 2.854-14 2.191-14
 *H2             4.8576-8 3.9110-8 3.1998-8 2.6535-8 4.8576-8 3.9110-8 3.1998-8 2.6535-8
 H2O             8.115-14 5.437-14 3.788-14 2.728-14 8.115-14 5.437-14 3.788-14 2.728-14
 *N              6.6676-1 6.6677-1 6.6677-1 6.6677-1 6.6676-1 6.6677-1 6.6677-1 6.6677-1
 NCO             8.879-13 4.873-13 2.825-13 1.717-13 8.879-13 4.873-13 2.825-13 1.717-13
 *NH             7.6222-7 6.2007-7 5.1107-7 4.2595-7 7.6222-7 6.2007-7 5.1107-7 4.2595-7
 NH2             5.482-13 3.927-13 2.901-13 2.199-13 5.482-13 3.927-13 2.901-13 2.199-13
 *NO             2.1669-6 1.6155-6 1.2373-6 9.6935-7 2.1669-6 1.6155-6 1.2373-6 9.6935-7
 NO2             2.673-13 1.787-13 1.243-13 8.939-14 2.673-13 1.787-13 1.243-13 8.939-14
 *N2             1.1658-5 7.6877-6 5.3030-6 3.7977-6 1.1658-5 7.6877-6 5.3030-6 3.7977-6
 NCN             1.688-12 9.523-13 5.647-13 3.495-13 1.688-12 9.523-13 5.647-13 3.495-13
 N2O             8.646-13 5.134-13 3.199-13 2.076-13 8.646-13 5.134-13 3.199-13 2.076-13
 N3              1.633-12 9.649-13 5.963-13 3.830-13 1.633-12 9.649-13 5.963-13 3.830-13
 *O              1.7724-1 1.7724-1 1.7724-1 1.7724-1 1.7724-1 1.7724-1 1.7724-1 1.7724-1
 *OH             1.8811-7 1.4945-7 1.2078-7 9.9038-8 1.8811-7 1.4945-7 1.2078-7 9.9038-8
 *O2             8.3309-8 6.5405-8 5.2317-8 4.2515-8 8.3309-8 6.5405-8 5.2317-8 4.2515-8
 O3              7.985-14 6.600-14 5.568-14 4.778-14 7.985-14 6.600-14 5.568-14 4.778-14

  * THERMODYNAMIC PROPERTIES FITTED TO 20000.K



