
 *******************************************************************************

         NASA-GLENN CHEMICAL EQUILIBRIUM PROGRAM CEA2, MAY 21, 2004
                   BY  BONNIE MCBRIDE AND SANFORD GORDON
      REFS: NASA RP-1311, PART I, 1994 AND NASA RP-1311, PART II, 1996

 *******************************************************************************



 problem    phi,eq.ratio=1.1,
       tp   t,k=2000,3000,4000,5000,6000,7000,8000,9000,10000,11000,12000,13000,1
 4000,15000,16000,  p,bar=1,1,1,1,1,1,1,1,1,1,1,1,1,1
 react
   fuel=C6H6 moles=1 t,k=300
   oxid=O2 moles=7.5 t,k=300
   oxid=N2 moles=28.2143 t,k=300
 output
      trace=1e-16 siunits short
 end




               THERMODYNAMIC EQUILIBRIUM PROPERTIES AT ASSIGNED

                           TEMPERATURE AND PRESSURE

 CASE =                

             REACTANT                       MOLES         ENERGY      TEMP
                                                         KJ/KG-MOL      K
 FUEL        C6H6                         1.0000000     83032.119    300.000
 OXIDANT     O2                           7.5000000        54.358    300.000
 OXIDANT     N2                          28.2143000        53.881    300.000

 O/F=   11.99177  %FUEL=  7.697178  R,EQ.RATIO= 1.100000  PHI,EQ.RATIO= 1.100000

 THERMODYNAMIC PROPERTIES

 P, BAR            1.0000   1.0000   1.0000   1.0000   1.0000   1.0000   1.0000   1.0000
 T, K             2000.00  3000.00  4000.00  5000.00  6000.00  7000.00  8000.00  9000.00
 RHO, KG/CU M    1.7608-1 1.0907-1 6.9803-2 5.3569-2 4.1171-2 2.8103-2 2.0840-2 1.7810-2
 H, KJ/KG         -531.86  2323.89  6938.73  9511.70  14695.5  29093.4  42279.8  47294.7
 U, KJ/KG        -1099.78  1407.03  5506.14  7644.93  12266.6  25535.1  37481.4  41680.0
 G, KJ/KG        -18837.4 -28462.5 -39465.5 -51369.1 -63936.1 -78044.7 -94374.1-111804.5
 S, KJ/(KG)(K)     9.1528  10.2621  11.6011  12.1762  13.1053  15.3054  17.0817  17.6777

 M, (1/n)          29.281   27.205   23.215   22.270   20.539   16.356   13.862   13.328
 (dLV/dLP)t      -1.00013 -1.02356 -1.02318 -1.01011 -1.04526 -1.10004 -1.04184 -1.00997
 (dLV/dLT)p        1.0046   1.4914   1.3277   1.1851   1.8997   2.7588   1.6434   1.1372
 Cp, KJ/(KG)(K)    1.4366   4.6365   3.1733   2.9131   8.8934  17.5721   7.9410   3.2580
 GAMMAs            1.2490   1.1403   1.2133   1.2046   1.1351   1.1365   1.1935   1.3117
 SON VEL,M/SEC      842.2   1022.5   1318.4   1499.6   1660.4   2011.0   2393.1   2713.8

 MOLE FRACTIONS

 *C              6.921-18 1.376-11 1.450 -7 8.762 -5 6.500 -3 5.236 -2 7.543 -2 7.763 -2
 *CH             2.505-18 7.091-13 1.365 -9 1.113 -7 1.857 -6 4.285 -6 2.403 -6 1.282 -6
 CH2             3.498-17 2.394-13 3.321-11 2.029-10 5.051-10 2.481-10 4.364-11 1.034-11
 CH3             9.692-16 8.184-14 6.204-13 2.515-13 8.887-14 9.151-15 5.041-16 5.318-17
 CH2OH           1.555-16 1.442-14 1.099-14 4.171-16 2.599-17 8.482-19 1.834-20 8.997-22
 CH3O            1.511-17 3.410-15 4.397-15 2.404-16 1.975-17 8.044-19 2.091-20 1.200-21
 CH4             2.029-15 3.875-15 2.522-15 1.015-16 7.533-18 2.403-19 6.064-21 4.100-22
 CH3OH           3.969-17 1.525-16 1.213-17 4.629-20 5.505-22 4.710-24 3.811-26 9.629-28
 *CN             1.219-13 7.798-10 4.457 -7 4.901 -5 1.083 -3 2.677 -3 1.034 -3 3.116 -4
 CNN             5.750-22 2.260-16 9.677-13 3.612-10 1.627 -8 4.772 -8 1.343 -8 2.538 -9
 *CO             3.5014-2 1.0890-1 1.3494-1 1.3141-1 1.1383-1 4.1610-2 5.4673-3 8.4107-4
 *CO2            1.3811-1 5.1946-2 2.3150-3 1.1984-4 1.3041-5 1.2256-6 5.5696-8 3.7128-9
 COOH            4.111 -9 9.382 -8 1.555 -8 6.551-10 5.264-11 3.290-12 1.086-13 6.041-15
 *C2             1.193-25 2.304-18 5.551-13 5.059 -9 2.366 -6 2.632 -5 1.455 -5 5.510 -6
 C2H             8.233-23 1.462-17 1.682-13 9.282-11 5.714 -9 1.242 -8 2.013 -9 3.185-10
 C2H2,acetylene  1.809-19 6.089-17 1.513-14 3.228-13 2.009-12 7.335-13 3.206-14 2.040-15
 C2H2,vinylidene 1.669-23 1.921-19 2.600-16 1.458-14 1.657-13 8.970-14 5.119-15 3.918-16
 CH2CO,ketene    2.076-17 7.638-16 6.024-15 5.998-15 4.095-15 3.331-16 4.339-18 1.026-19
 CCN             4.082-28 4.903-21 8.920-16 7.037-12 2.717 -9 1.888 -8 4.702 -9 7.697-10
 CNC             4.244-25 4.811-19 2.695-14 1.049-10 2.523 -8 1.248 -7 2.403 -8 3.215 -9
 OCCN            3.647-18 8.765-15 2.227-12 1.296-10 1.654 -9 1.119 -9 4.565-11 1.777-12
 C2N2            6.965-20 4.732-17 6.610-14 3.037-11 1.673 -9 2.147 -9 9.939-11 3.617-12
 C2O             1.591-17 2.033-13 1.289-10 1.283 -8 2.580 -7 3.358 -7 3.473 -8 3.448 -9
 *C3             3.266-31 6.270-24 1.070-17 7.308-13 1.385 -9 1.592 -8 2.770 -9 3.347-10
 C3O2            1.039-19 2.289-17 1.447-15 3.224-14 2.167-13 5.324-14 4.466-16 4.725-18
 *C4             0.000  0 5.691-33 7.358-25 1.643-18 3.293-14 7.448-13 6.373-14 3.394-15
 *C5             0.000  0 0.000  0 1.016-29 1.959-22 1.682-17 3.939-16 1.031-17 1.677-19
 *H              1.0964-4 1.8170-2 1.1452-1 1.2985-1 1.2113-1 9.6612-2 8.1921-2 7.8780-2
 HCN             2.186-10 5.574 -9 9.697 -8 4.834 -7 1.148 -6 4.776 -7 4.830 -8 5.562 -9
 HCO             1.352 -9 1.509 -7 5.427 -7 3.758 -7 2.226 -7 5.203 -8 4.906 -9 6.356-10
 HCCN            1.917-27 9.124-22 1.660-17 1.259-14 8.861-13 1.543-12 1.375-13 1.111-14
 HCCO            1.200-18 2.497-15 3.012-13 4.076-12 1.838-11 6.849-12 2.773-13 1.447-14
 HNC             1.103-11 9.706-10 3.096 -8 2.199 -7 6.563 -7 3.200 -7 3.630 -8 4.558 -9
 HNCO            1.133 -9 5.568 -9 4.139 -9 1.169 -9 3.526-10 3.702-11 1.244-12 5.872-14
 HNO             1.974 -9 8.140 -7 8.130 -7 1.241 -7 2.460 -8 5.233 -9 1.002 -9 2.386-10
 HNO2            1.765-10 6.125 -8 5.142 -9 6.463-11 2.068-12 1.311-13 9.447-15 1.013-15
 HNO3            5.778-16 2.301-12 6.560-14 1.645-16 1.563-18 4.616-20 1.759-21 1.113-22
 HO2             3.223 -9 6.004 -6 1.216 -6 2.518 -8 1.227 -9 1.454-10 2.590-11 6.928-12
 *H2             4.5308-3 1.3199-2 5.1475-3 4.0651-4 5.4883-5 9.2322-6 2.4509-6 1.0441-6
 HCHO,formaldehy 6.561-11 5.918-10 3.010-10 2.450-11 3.012-12 1.929-13 6.950-15 4.670-16
 HCOOH           1.138 -9 1.903 -9 4.260-11 2.043-13 3.317-15 5.551-17 6.860-19 1.945-20
 H2O             8.186 -2 4.660 -2 7.865 -4 3.572 -6 6.228 -8 2.685 -9 2.405-10 4.264-11
 H2O2            7.981-10 1.286 -7 3.663 -9 8.719-12 8.632-14 2.762-15 1.860-16 2.564-17
 *N              7.755-10 1.147 -5 1.347 -3 2.449 -2 1.572 -1 4.346 -1 6.115 -1 6.551 -1
 NCO             1.261-11 6.060 -9 9.308 -8 4.339 -7 9.938 -7 5.310 -7 6.031 -8 6.726 -9
 *NH             3.037-10 6.424 -7 1.346 -5 3.232 -5 4.590 -5 3.596 -5 1.955 -5 1.080 -5
 NH2             4.544-10 5.170 -8 1.221 -7 2.978 -8 7.900 -9 1.567 -9 3.059-10 8.353-11
 NH3             5.312 -9 8.576 -9 1.171 -9 1.937-11 7.338-13 3.045-14 1.852-15 2.235-16
 NH2OH           4.128-14 2.458-12 2.147-13 1.056-15 1.561-17 3.666-19 1.364-20 1.089-21
 *NO             8.4329-5 1.5290-2 1.8859-2 8.2335-3 3.7341-3 1.6894-3 5.6412-4 1.8892-4
 NO2             1.667 -9 3.075 -6 1.232 -6 1.075 -7 1.496 -8 3.318 -9 6.208-10 1.299-10
 NO3             2.727-17 3.878-12 1.362-12 4.110-14 2.394-15 3.082-16 3.527-17 4.805-18
 *N2             7.4004-1 6.7996-1 5.7665-1 5.4647-1 4.3811-1 1.9389-1 4.3798-2 9.0295-3
 NCN             7.462-19 2.026-14 2.280-11 3.815 -9 1.005 -7 2.009 -7 4.235 -8 6.393 -9
 N2H2            9.916-15 2.174-12 7.597-12 2.535-12 7.771-13 1.249-13 1.357-14 1.913-15
 N2O             4.6105-9 8.0673-7 9.8821-7 4.6010-7 2.0496-7 6.7372-8 1.1572-8 1.8823-9
 N2O3            2.806-19 5.795-14 2.359-14 8.109-16 4.767-17 4.501-18 2.656-19 1.759-20
 N3              1.227-15 8.114-12 5.818-10 8.349 -9 3.811 -8 4.259 -8 1.252 -8 2.569 -9
 N3H             7.321-16 4.604-13 4.936-12 8.522-12 8.167-12 2.521-12 2.847-13 3.044-14
 *O              3.4814-6 1.7875-2 1.2724-1 1.5738-1 1.5813-1 1.7641-1 1.8022-1 1.7805-1
 *OH             2.2344-4 2.3078-2 1.0854-2 9.6653-4 1.4247-4 3.3546-5 1.0645-5 4.5974-6
 *O2             2.7102-5 2.4956-2 7.3166-3 5.0562-4 6.4575-5 1.8323-5 6.2951-6 2.5816-6
 O3              8.348-15 5.303 -9 5.411 -9 3.658-10 4.328-11 1.325-11 4.607-12 1.876-12

  * THERMODYNAMIC PROPERTIES FITTED TO 20000.K









               THERMODYNAMIC EQUILIBRIUM PROPERTIES AT ASSIGNED

                           TEMPERATURE AND PRESSURE

 CASE =                

             REACTANT                       MOLES         ENERGY      TEMP
                                                         KJ/KG-MOL      K
 FUEL        C6H6                         1.0000000     83032.119    300.000
 OXIDANT     O2                           7.5000000        54.358    300.000
 OXIDANT     N2                          28.2143000        53.881    300.000

 O/F=   11.99177  %FUEL=  7.697178  R,EQ.RATIO= 1.100000  PHI,EQ.RATIO= 1.100000

 THERMODYNAMIC PROPERTIES

 P, BAR            1.0000   1.0000   1.0000   1.0000   1.0000   1.0000   1.0000   1.0000
 T, K            10000.00 11000.00 12000.00 13000.00 14000.00 15000.00 16000.00  2000.00
 RHO, KG/CU M    1.5907-2 1.4435-2 1.3225-2 1.2205-2 1.1333-2 1.0577-2 9.9155-3 1.7608-1
 H, KJ/KG         49989.1  52251.6  54425.7  56581.7  58738.2  60902.1  63076.3  -531.86
 U, KJ/KG         43702.6  45323.9  46864.2  48388.5  49914.1  51447.4  52991.1 -1099.78
 G, KJ/KG       -129634.5-147707.8-165982.2-184437.0-203057.7-221832.9-240752.7 -18837.4
 S, KJ/(KG)(K)    17.9624  18.1781  18.3673  18.5399  18.6997  18.8490  18.9893   9.1528

 M, (1/n)          13.226   13.202   13.195   13.193   13.192   13.191   13.191   29.281
 (dLV/dLP)t      -1.00265 -1.00087 -1.00034 -1.00015 -1.00008 -1.00004 -1.00003 -1.00013
 (dLV/dLT)p        1.0330   1.0098   1.0035   1.0015   1.0007   1.0004   1.0002   1.0046
 Cp, KJ/(KG)(K)    2.3705   2.1975   2.1600   2.1546   2.1595   2.1688   2.1799   1.4366
 GAMMAs            1.3895   1.4112   1.4153   1.4149   1.4128   1.4100   1.4070   1.2490
 SON VEL,M/SEC     2955.6   3126.7   3271.4   3404.7   3530.8   3651.2   3766.9    842.2

 MOLE FRACTIONS

 *C              7.790 -2 7.795 -2 7.797 -2 7.798 -2 7.798 -2 7.798 -2 7.799 -2 6.921-18
 *CH             7.687 -7 5.002 -7 3.453 -7 2.491 -7 1.858 -7 1.424 -7 1.115 -7 2.505-18
 CH2             3.327-12 1.314-12 6.022-13 3.091-13 1.733-13 1.042-13 6.628-14 3.498-17
 CH3             9.211-18 2.208-18 6.699-19 2.431-19 1.014-19 4.724-20 2.407-20 9.692-16
 CH2OH           8.427-23 1.216-23 2.402-24 6.037-25 1.830-25 6.440-26 2.557-26 1.555-16
 CH4             5.399-23 1.089-23 2.981-24 1.025-24 4.200-25 1.974-25 1.035-25 2.029-15
 *CN             1.113 -4 4.723 -5 2.295 -5 1.241 -5 7.290 -6 4.582 -6 3.040 -6 1.219-13
 CNN             5.874-10 1.702-10 5.916-11 2.373-11 1.067-11 5.258-12 2.793-12 5.750-22
 *CO             1.8481-4 5.3499-5 1.9123-5 8.0638-6 3.8793-6 2.0756-6 1.2108-6 3.5014-2
 *CO2            4.276-10 7.412-11 1.745-11 5.196-12 1.859-12 7.687-13 3.573-13 1.381 -1
 COOH            6.025-16 9.106-17 1.872-17 4.873-18 1.525-18 5.527-19 2.257-19 4.111 -9
 *C2             2.438 -6 1.246 -6 7.104 -7 4.403 -7 2.910 -7 2.022 -7 1.461 -7 1.193-25
 C2H             7.134-11 2.086-11 7.448-12 3.096-12 1.449-12 7.453-13 4.134-13 8.233-23
 C2H2,acetylene  2.289-16 3.866-17 8.827-18 2.535-18 8.705-19 3.441-19 1.524-19 1.809-19
 CCN             1.637-10 4.483-11 1.497-11 5.833-12 2.565-12 1.243-12 6.513-13 4.082-28
 CNC             5.812-10 1.392-10 4.156-11 1.471-11 5.956-12 2.684-12 1.320-12 4.244-25
 OCCN            1.204-13 1.295-14 1.984-15 3.994-16 9.968-17 2.953-17 1.006-17 3.647-18
 C2N2            2.216-13 2.174-14 3.080-15 5.802-16 1.368-16 3.860-17 1.260-17 6.965-20
 C2O             5.227-10 1.108-10 3.026-11 1.002-11 3.864-12 1.679-12 8.044-13 1.591-17
 *C3             5.853-11 1.398-11 4.221-12 1.522-12 6.296-13 2.899-13 1.455-13 3.266-31
 *C4             2.998-16 4.073-17 7.670-18 1.854-18 5.445-19 1.864-19 7.220-20 0.000  0
 *H              7.8186-2 7.8049-2 7.8010-2 7.7997-2 7.7992-2 7.7989-2 7.7989-2 1.0964-4
 HCN             9.363-10 2.140-10 6.176-11 2.135-11 8.504-12 3.794-12 1.856-12 2.186-10
 HCO             1.239-10 3.235-11 1.049-11 4.015-12 1.750-12 8.454-13 4.441-13 1.352 -9
 HCCN            1.382-15 2.457-16 5.745-17 1.659-17 5.653-18 2.198-18 9.509-19 1.917-27
 HCCO            1.340-15 1.901-16 3.711-17 9.243-18 2.785-18 9.767-19 3.870-19 1.200-18
 HNC             8.204-10 1.977-10 5.953-11 2.130-11 8.731-12 3.989-12 1.990-12 1.103-11
 HNCO            4.846-15 6.164-16 1.088-16 2.473-17 6.856-18 2.229-18 8.243-19 1.133 -9
 HNO             7.382-11 2.792-11 1.230-11 6.094-12 3.314-12 1.941-12 1.208-12 1.974 -9
 HNO2            1.656-16 3.705-17 1.049-17 3.562-18 1.396-18 6.138-19 2.964-19 1.765-10
 HNO3            1.198-23 1.902-24 4.042-25 1.075-25 3.412-26 1.248-26 5.122-27 5.778-16
 HO2             2.485-12 1.076-12 5.342-13 2.941-13 1.755-13 1.118-13 7.501-14 3.223 -9
 *H2             5.5205-7 3.2946-7 2.1364-7 1.4729-7 1.0641-7 7.9732-8 6.1507-8 4.5308-3
 HCHO,formaldehy 5.527-17 9.656-18 2.246-18 6.497-19 2.229-19 8.759-20 3.841-20 6.561-11
 HCOOH           1.159-21 1.155-22 1.681-23 3.265-24 7.955-25 2.320-25 7.832-26 1.138 -9
 H2O             1.124-11 3.808-12 1.545-12 7.191-13 3.725-13 2.101-13 1.269-13 8.186 -2
 H2O2            5.556-18 1.605-18 5.700-19 2.368-19 1.112-19 5.756-20 3.224-20 7.981-10
 *N              6.638 -1 6.658 -1 6.664 -1 6.666 -1 6.667 -1 6.667 -1 6.668 -1 7.755-10
 NCO             1.080 -9 2.360-10 6.541-11 2.179-11 8.393-12 3.631-12 1.727-12 1.261-11
 *NH             6.508 -6 4.234 -6 2.920 -6 2.107 -6 1.575 -6 1.210 -6 9.516 -7 3.037-10
 NH2             2.948-11 1.249-11 6.067-12 3.274-12 1.919-12 1.202-12 7.940-13 4.544-10
 NH3             4.208-17 1.072-17 3.417-18 1.291-18 5.580-19 2.683-19 1.407-19 5.312 -9
 NH2OH           1.477-22 2.879-23 7.322-24 2.283-24 8.353-25 3.472-25 1.600-25 4.128-14
 *NO             7.5145-5 3.4879-5 1.8283-5 1.0542-5 6.5553-6 4.3299-6 3.0029-6 8.4329-5
 NO2             3.586-11 1.238-11 5.073-12 2.372-12 1.230-12 6.939-13 4.188-13 1.667 -9
 *N2             2.2957-3 7.2613-4 2.7476-4 1.2009-4 5.8997-5 3.1897-5 1.8663-5 7.4004-1
 NCN             1.235 -9 3.085-10 9.472-11 3.421-11 1.405-11 6.401-12 3.174-12 7.462-19
 N2H2            3.786-16 9.853-17 3.164-17 1.197-17 5.148-18 2.457-18 1.275-18 9.916-15
 N2O             3.985-10 1.083-10 3.588-11 1.388-11 6.076-12 2.938-12 1.541-12 4.610 -9
 N3              6.147-10 1.806-10 6.302-11 2.523-11 1.129-11 5.523-12 2.911-12 1.227-15
 N3H             4.438-15 8.748-16 2.194-16 6.654-17 2.347-17 9.356-18 4.122-18 7.321-16
 *O              1.7746-1 1.7731-1 1.7727-1 1.7725-1 1.7725-1 1.7725-1 1.7725-1 3.4814-6
 *OH             2.4016-6 1.4092-6 8.9749-7 6.0776-7 4.3153-7 3.1809-7 2.4163-7 2.2344-4
 *O2             1.2761-6 7.1595-7 4.3999-7 2.8952-7 2.0082-7 1.4519-7 1.0850-7 2.7102-5
 O3              9.385-13 5.383-13 3.406-13 2.321-13 1.674-13 1.264-13 9.900-14 8.348-15

  * THERMODYNAMIC PROPERTIES FITTED TO 20000.K









               THERMODYNAMIC EQUILIBRIUM PROPERTIES AT ASSIGNED

                           TEMPERATURE AND PRESSURE

 CASE =                

             REACTANT                       MOLES         ENERGY      TEMP
                                                         KJ/KG-MOL      K
 FUEL        C6H6                         1.0000000     83032.119    300.000
 OXIDANT     O2                           7.5000000        54.358    300.000
 OXIDANT     N2                          28.2143000        53.881    300.000

 O/F=   11.99177  %FUEL=  7.697178  R,EQ.RATIO= 1.100000  PHI,EQ.RATIO= 1.100000

 THERMODYNAMIC PROPERTIES

 P, BAR            1.0000   1.0000   1.0000   1.0000   1.0000   1.0000   1.0000   1.0000
 T, K             3000.00  4000.00  5000.00  6000.00  7000.00  8000.00  9000.00 10000.00
 RHO, KG/CU M    1.0907-1 6.9803-2 5.3569-2 4.1171-2 2.8103-2 2.0840-2 1.7810-2 1.5907-2
 H, KJ/KG         2323.89  6938.73  9511.70  14695.5  29093.4  42279.8  47294.7  49989.1
 U, KJ/KG         1407.03  5506.14  7644.93  12266.6  25535.1  37481.4  41680.0  43702.6
 G, KJ/KG        -28462.5 -39465.5 -51369.1 -63936.1 -78044.7 -94374.1-111804.5-129634.5
 S, KJ/(KG)(K)    10.2621  11.6011  12.1762  13.1053  15.3054  17.0817  17.6777  17.9624

 M, (1/n)          27.205   23.215   22.270   20.539   16.356   13.862   13.328   13.226
 (dLV/dLP)t      -1.02356 -1.02318 -1.01011 -1.04526 -1.10004 -1.04184 -1.00997 -1.00265
 (dLV/dLT)p        1.4914   1.3277   1.1851   1.8997   2.7588   1.6434   1.1372   1.0330
 Cp, KJ/(KG)(K)    4.6365   3.1733   2.9131   8.8934  17.5721   7.9410   3.2580   2.3705
 GAMMAs            1.1403   1.2133   1.2046   1.1351   1.1365   1.1935   1.3117   1.3895
 SON VEL,M/SEC     1022.5   1318.4   1499.6   1660.4   2011.0   2393.1   2713.8   2955.6

 MOLE FRACTIONS

 *C              1.376-11 1.450 -7 8.762 -5 6.500 -3 5.236 -2 7.543 -2 7.763 -2 7.790 -2
 *CH             7.091-13 1.365 -9 1.113 -7 1.857 -6 4.285 -6 2.403 -6 1.282 -6 7.687 -7
 CH2             2.394-13 3.321-11 2.029-10 5.051-10 2.481-10 4.364-11 1.034-11 3.327-12
 CH3             8.184-14 6.204-13 2.515-13 8.887-14 9.151-15 5.041-16 5.318-17 9.211-18
 CH2OH           1.442-14 1.099-14 4.171-16 2.599-17 8.482-19 1.834-20 8.997-22 8.427-23
 CH3O            3.410-15 4.397-15 2.404-16 1.975-17 8.044-19 2.091-20 1.200-21 1.289-22
 CH4             3.875-15 2.522-15 1.015-16 7.533-18 2.403-19 6.064-21 4.100-22 5.399-23
 CH3OH           1.525-16 1.213-17 4.629-20 5.505-22 4.710-24 3.811-26 9.629-28 5.487-29
 *CN             7.798-10 4.457 -7 4.901 -5 1.083 -3 2.677 -3 1.034 -3 3.116 -4 1.113 -4
 CNN             2.260-16 9.677-13 3.612-10 1.627 -8 4.772 -8 1.343 -8 2.538 -9 5.874-10
 *CO             1.0890-1 1.3494-1 1.3141-1 1.1383-1 4.1610-2 5.4673-3 8.4107-4 1.8481-4
 *CO2            5.195 -2 2.315 -3 1.198 -4 1.304 -5 1.226 -6 5.570 -8 3.713 -9 4.276-10
 COOH            9.382 -8 1.555 -8 6.551-10 5.264-11 3.290-12 1.086-13 6.041-15 6.025-16
 *C2             2.304-18 5.551-13 5.059 -9 2.366 -6 2.632 -5 1.455 -5 5.510 -6 2.438 -6
 C2H             1.462-17 1.682-13 9.282-11 5.714 -9 1.242 -8 2.013 -9 3.185-10 7.134-11
 C2H2,acetylene  6.089-17 1.513-14 3.228-13 2.009-12 7.335-13 3.206-14 2.040-15 2.289-16
 C2H2,vinylidene 1.921-19 2.600-16 1.458-14 1.657-13 8.970-14 5.119-15 3.918-16 5.008-17
 CH2CO,ketene    7.638-16 6.024-15 5.998-15 4.095-15 3.331-16 4.339-18 1.026-19 5.172-21
 CCN             4.903-21 8.920-16 7.037-12 2.717 -9 1.888 -8 4.702 -9 7.697-10 1.637-10
 CNC             4.811-19 2.695-14 1.049-10 2.523 -8 1.248 -7 2.403 -8 3.215 -9 5.812-10
 OCCN            8.765-15 2.227-12 1.296-10 1.654 -9 1.119 -9 4.565-11 1.777-12 1.204-13
 C2N2            4.732-17 6.610-14 3.037-11 1.673 -9 2.147 -9 9.939-11 3.617-12 2.216-13
 C2O             2.033-13 1.289-10 1.283 -8 2.580 -7 3.358 -7 3.473 -8 3.448 -9 5.227-10
 *C3             6.270-24 1.070-17 7.308-13 1.385 -9 1.592 -8 2.770 -9 3.347-10 5.853-11
 C3O2            2.289-17 1.447-15 3.224-14 2.167-13 5.324-14 4.466-16 4.725-18 1.176-19
 *C4             5.691-33 7.358-25 1.643-18 3.293-14 7.448-13 6.373-14 3.394-15 2.998-16
 *C5             0.000  0 1.016-29 1.959-22 1.682-17 3.939-16 1.031-17 1.677-19 5.587-21
 *H              1.8170-2 1.1452-1 1.2985-1 1.2113-1 9.6612-2 8.1921-2 7.8780-2 7.8186-2
 HCN             5.574 -9 9.697 -8 4.834 -7 1.148 -6 4.776 -7 4.830 -8 5.562 -9 9.363-10
 HCO             1.509 -7 5.427 -7 3.758 -7 2.226 -7 5.203 -8 4.906 -9 6.356-10 1.239-10
 HCCN            9.124-22 1.660-17 1.259-14 8.861-13 1.543-12 1.375-13 1.111-14 1.382-15
 HCCO            2.497-15 3.012-13 4.076-12 1.838-11 6.849-12 2.773-13 1.447-14 1.340-15
 HNC             9.706-10 3.096 -8 2.199 -7 6.563 -7 3.200 -7 3.630 -8 4.558 -9 8.204-10
 HNCO            5.568 -9 4.139 -9 1.169 -9 3.526-10 3.702-11 1.244-12 5.872-14 4.846-15
 HNO             8.140 -7 8.130 -7 1.241 -7 2.460 -8 5.233 -9 1.002 -9 2.386-10 7.382-11
 HNO2            6.125 -8 5.142 -9 6.463-11 2.068-12 1.311-13 9.447-15 1.013-15 1.656-16
 HNO3            2.301-12 6.560-14 1.645-16 1.563-18 4.616-20 1.759-21 1.113-22 1.198-23
 HO2             6.004 -6 1.216 -6 2.518 -8 1.227 -9 1.454-10 2.590-11 6.928-12 2.485-12
 *H2             1.3199-2 5.1475-3 4.0651-4 5.4883-5 9.2322-6 2.4509-6 1.0441-6 5.5205-7
 HCHO,formaldehy 5.918-10 3.010-10 2.450-11 3.012-12 1.929-13 6.950-15 4.670-16 5.527-17
 HCOOH           1.903 -9 4.260-11 2.043-13 3.317-15 5.551-17 6.860-19 1.945-20 1.159-21
 H2O             4.660 -2 7.865 -4 3.572 -6 6.228 -8 2.685 -9 2.405-10 4.264-11 1.124-11
 H2O2            1.286 -7 3.663 -9 8.719-12 8.632-14 2.762-15 1.860-16 2.564-17 5.556-18
 *N              1.1472-5 1.3467-3 2.4487-2 1.5716-1 4.3462-1 6.1152-1 6.5514-1 6.6378-1
 NCO             6.0598-9 9.3078-8 4.3392-7 9.9379-7 5.3099-7 6.0314-8 6.7258-9 1.0799-9
 *NH             6.4236-7 1.3458-5 3.2324-5 4.5897-5 3.5961-5 1.9546-5 1.0795-5 6.5085-6
 NH2             5.170 -8 1.221 -7 2.978 -8 7.900 -9 1.567 -9 3.059-10 8.353-11 2.948-11
 NH3             8.576 -9 1.171 -9 1.937-11 7.338-13 3.045-14 1.852-15 2.235-16 4.208-17
 NH2OH           2.458-12 2.147-13 1.056-15 1.561-17 3.666-19 1.364-20 1.089-21 1.477-22
 *NO             1.5290-2 1.8859-2 8.2335-3 3.7341-3 1.6894-3 5.6412-4 1.8892-4 7.5145-5
 NO2             3.075 -6 1.232 -6 1.075 -7 1.496 -8 3.318 -9 6.208-10 1.299-10 3.586-11
 NO3             3.878-12 1.362-12 4.110-14 2.394-15 3.082-16 3.527-17 4.805-18 9.328-19
 *N2             6.7996-1 5.7665-1 5.4647-1 4.3811-1 1.9389-1 4.3798-2 9.0295-3 2.2957-3
 NCN             2.026-14 2.280-11 3.815 -9 1.005 -7 2.009 -7 4.235 -8 6.393 -9 1.235 -9
 N2H2            2.174-12 7.597-12 2.535-12 7.771-13 1.249-13 1.357-14 1.913-15 3.786-16
 N2O             8.067 -7 9.882 -7 4.601 -7 2.050 -7 6.737 -8 1.157 -8 1.882 -9 3.985-10
 N2O3            5.795-14 2.359-14 8.109-16 4.767-17 4.501-18 2.656-19 1.759-20 1.824-21
 N3              8.114-12 5.818-10 8.349 -9 3.811 -8 4.259 -8 1.252 -8 2.569 -9 6.147-10
 N3H             4.604-13 4.936-12 8.522-12 8.167-12 2.521-12 2.847-13 3.044-14 4.438-15
 *O              1.7875-2 1.2724-1 1.5738-1 1.5813-1 1.7641-1 1.8022-1 1.7805-1 1.7746-1
 *OH             2.3078-2 1.0854-2 9.6653-4 1.4247-4 3.3546-5 1.0645-5 4.5974-6 2.4016-6
 *O2             2.4956-2 7.3166-3 5.0562-4 6.4575-5 1.8323-5 6.2951-6 2.5816-6 1.2761-6
 O3              5.303 -9 5.411 -9 3.658-10 4.328-11 1.325-11 4.607-12 1.876-12 9.385-13

  * THERMODYNAMIC PROPERTIES FITTED TO 20000.K









               THERMODYNAMIC EQUILIBRIUM PROPERTIES AT ASSIGNED

                           TEMPERATURE AND PRESSURE

 CASE =                

             REACTANT                       MOLES         ENERGY      TEMP
                                                         KJ/KG-MOL      K
 FUEL        C6H6                         1.0000000     83032.119    300.000
 OXIDANT     O2                           7.5000000        54.358    300.000
 OXIDANT     N2                          28.2143000        53.881    300.000

 O/F=   11.99177  %FUEL=  7.697178  R,EQ.RATIO= 1.100000  PHI,EQ.RATIO= 1.100000

 THERMODYNAMIC PROPERTIES

 P, BAR            1.0000   1.0000   1.0000   1.0000   1.0000   1.0000   1.0000   1.0000
 T, K            11000.00 12000.00 13000.00 14000.00 15000.00 16000.00  2000.00  3000.00
 RHO, KG/CU M    1.4435-2 1.3225-2 1.2205-2 1.1333-2 1.0577-2 9.9155-3 1.7608-1 1.0907-1
 H, KJ/KG         52251.6  54425.7  56581.7  58738.2  60902.1  63076.3  -531.86  2323.89
 U, KJ/KG         45323.9  46864.2  48388.5  49914.1  51447.4  52991.1 -1099.78  1407.03
 G, KJ/KG       -147707.8-165982.2-184437.0-203057.7-221832.9-240752.7 -18837.4 -28462.5
 S, KJ/(KG)(K)    18.1781  18.3673  18.5399  18.6997  18.8490  18.9893   9.1528  10.2621

 M, (1/n)          13.202   13.195   13.193   13.192   13.191   13.191   29.281   27.205
 (dLV/dLP)t      -1.00087 -1.00034 -1.00015 -1.00008 -1.00004 -1.00003 -1.00013 -1.02356
 (dLV/dLT)p        1.0098   1.0035   1.0015   1.0007   1.0004   1.0002   1.0046   1.4914
 Cp, KJ/(KG)(K)    2.1975   2.1600   2.1546   2.1595   2.1688   2.1799   1.4366   4.6365
 GAMMAs            1.4112   1.4153   1.4149   1.4128   1.4100   1.4070   1.2490   1.1403
 SON VEL,M/SEC     3126.7   3271.4   3404.7   3530.8   3651.2   3766.9    842.2   1022.5

 MOLE FRACTIONS

 *C              7.795 -2 7.797 -2 7.798 -2 7.798 -2 7.798 -2 7.799 -2 6.921-18 1.376-11
 *CH             5.002 -7 3.453 -7 2.491 -7 1.858 -7 1.424 -7 1.115 -7 2.505-18 7.091-13
 CH2             1.314-12 6.022-13 3.091-13 1.733-13 1.042-13 6.628-14 3.498-17 2.394-13
 CH3             2.208-18 6.699-19 2.431-19 1.014-19 4.724-20 2.407-20 9.692-16 8.184-14
 CH2OH           1.216-23 2.402-24 6.037-25 1.830-25 6.440-26 2.557-26 1.555-16 1.442-14
 CH3O            2.099-23 4.624-24 1.282-24 4.250-25 1.624-25 6.962-26 1.511-17 3.410-15
 CH4             1.089-23 2.981-24 1.025-24 4.200-25 1.974-25 1.035-25 2.029-15 3.875-15
 CH3OH           5.336-30 7.652-31 1.474-31 3.574-32 1.040-32 3.510-33 3.969-17 1.525-16
 *CN             4.723 -5 2.295 -5 1.241 -5 7.290 -6 4.582 -6 3.040 -6 1.219-13 7.798-10
 CNN             1.702-10 5.916-11 2.373-11 1.067-11 5.258-12 2.793-12 5.750-22 2.260-16
 *CO             5.3499-5 1.9123-5 8.0638-6 3.8793-6 2.0756-6 1.2108-6 3.5014-2 1.0890-1
 *CO2            7.412-11 1.745-11 5.196-12 1.859-12 7.687-13 3.573-13 1.381 -1 5.195 -2
 COOH            9.106-17 1.872-17 4.873-18 1.525-18 5.527-19 2.257-19 4.111 -9 9.382 -8
 *C2             1.246 -6 7.104 -7 4.403 -7 2.910 -7 2.022 -7 1.461 -7 1.193-25 2.304-18
 C2H             2.086-11 7.448-12 3.096-12 1.449-12 7.453-13 4.134-13 8.233-23 1.462-17
 CH2CO,ketene    4.489-22 5.826-23 1.028-23 2.308-24 6.269-25 1.986-25 2.076-17 7.638-16
 CCN             4.483-11 1.497-11 5.833-12 2.565-12 1.243-12 6.513-13 4.082-28 4.903-21
 CNC             1.392-10 4.156-11 1.471-11 5.956-12 2.684-12 1.320-12 4.244-25 4.811-19
 OCCN            1.295-14 1.984-15 3.994-16 9.968-17 2.953-17 1.006-17 3.647-18 8.765-15
 C2N2            2.174-14 3.080-15 5.802-16 1.368-16 3.860-17 1.260-17 6.965-20 4.732-17
 C2O             1.108-10 3.026-11 1.002-11 3.864-12 1.679-12 8.044-13 1.591-17 2.033-13
 *C3             1.398-11 4.221-12 1.522-12 6.296-13 2.899-13 1.455-13 3.266-31 6.270-24
 *H              7.8049-2 7.8010-2 7.7997-2 7.7992-2 7.7989-2 7.7989-2 1.0964-4 1.8170-2
 HCN             2.140-10 6.176-11 2.135-11 8.504-12 3.794-12 1.856-12 2.186-10 5.574 -9
 HCO             3.235-11 1.049-11 4.015-12 1.750-12 8.454-13 4.441-13 1.352 -9 1.509 -7
 HCCN            2.457-16 5.745-17 1.659-17 5.653-18 2.198-18 9.509-19 1.917-27 9.124-22
 HCCO            1.901-16 3.711-17 9.243-18 2.785-18 9.767-19 3.870-19 1.200-18 2.497-15
 HNC             1.977-10 5.953-11 2.130-11 8.731-12 3.989-12 1.990-12 1.103-11 9.706-10
 HNCO            6.164-16 1.088-16 2.473-17 6.856-18 2.229-18 8.243-19 1.133 -9 5.568 -9
 HNO             2.792-11 1.230-11 6.094-12 3.314-12 1.941-12 1.208-12 1.974 -9 8.140 -7
 HNO2            3.705-17 1.049-17 3.562-18 1.396-18 6.138-19 2.964-19 1.765-10 6.125 -8
 HNO3            1.902-24 4.042-25 1.075-25 3.412-26 1.248-26 5.122-27 5.778-16 2.301-12
 HO2             1.076-12 5.342-13 2.941-13 1.755-13 1.118-13 7.501-14 3.223 -9 6.004 -6
 *H2             3.2946-7 2.1364-7 1.4729-7 1.0641-7 7.9732-8 6.1507-8 4.5308-3 1.3199-2
 HCHO,formaldehy 9.656-18 2.246-18 6.497-19 2.229-19 8.759-20 3.841-20 6.561-11 5.918-10
 HCOOH           1.155-22 1.681-23 3.265-24 7.955-25 2.320-25 7.832-26 1.138 -9 1.903 -9
 H2O             3.808-12 1.545-12 7.191-13 3.725-13 2.101-13 1.269-13 8.186 -2 4.660 -2
 H2O2            1.605-18 5.700-19 2.368-19 1.112-19 5.756-20 3.224-20 7.981-10 1.286 -7
 *N              6.658 -1 6.664 -1 6.666 -1 6.667 -1 6.667 -1 6.668 -1 7.755-10 1.147 -5
 NCO             2.360-10 6.541-11 2.179-11 8.393-12 3.631-12 1.727-12 1.261-11 6.060 -9
 *NH             4.234 -6 2.920 -6 2.107 -6 1.575 -6 1.210 -6 9.516 -7 3.037-10 6.424 -7
 NH2             1.249-11 6.067-12 3.274-12 1.919-12 1.202-12 7.940-13 4.544-10 5.170 -8
 NH3             1.072-17 3.417-18 1.291-18 5.580-19 2.683-19 1.407-19 5.312 -9 8.576 -9
 NH2OH           2.879-23 7.322-24 2.283-24 8.353-25 3.472-25 1.600-25 4.128-14 2.458-12
 *NO             3.4879-5 1.8283-5 1.0542-5 6.5553-6 4.3299-6 3.0029-6 8.4329-5 1.5290-2
 NO2             1.238-11 5.073-12 2.372-12 1.230-12 6.939-13 4.188-13 1.667 -9 3.075 -6
 NO3             2.390-19 7.562-20 2.817-20 1.194-20 5.612-21 2.871-21 2.727-17 3.878-12
 *N2             7.2613-4 2.7476-4 1.2009-4 5.8997-5 3.1897-5 1.8663-5 7.4004-1 6.7996-1
 NCN             3.085-10 9.472-11 3.421-11 1.405-11 6.401-12 3.174-12 7.462-19 2.026-14
 N2H2            9.853-17 3.164-17 1.197-17 5.148-18 2.457-18 1.275-18 9.916-15 2.174-12
 N2O             1.083-10 3.588-11 1.388-11 6.076-12 2.938-12 1.541-12 4.610 -9 8.067 -7
 N2O3            2.754-22 5.565-23 1.410-23 4.273-24 1.496-24 5.893-25 2.806-19 5.795-14
 N3              1.806-10 6.302-11 2.523-11 1.129-11 5.523-12 2.911-12 1.227-15 8.114-12
 N3H             8.748-16 2.194-16 6.654-17 2.347-17 9.356-18 4.122-18 7.321-16 4.604-13
 *O              1.7731-1 1.7727-1 1.7725-1 1.7725-1 1.7725-1 1.7725-1 3.4814-6 1.7875-2
 *OH             1.4092-6 8.9749-7 6.0776-7 4.3153-7 3.1809-7 2.4163-7 2.2344-4 2.3078-2
 *O2             7.1595-7 4.3999-7 2.8952-7 2.0082-7 1.4519-7 1.0850-7 2.7102-5 2.4956-2
 O3              5.383-13 3.406-13 2.321-13 1.674-13 1.264-13 9.900-14 8.348-15 5.303 -9

  * THERMODYNAMIC PROPERTIES FITTED TO 20000.K









               THERMODYNAMIC EQUILIBRIUM PROPERTIES AT ASSIGNED

                           TEMPERATURE AND PRESSURE

 CASE =                

             REACTANT                       MOLES         ENERGY      TEMP
                                                         KJ/KG-MOL      K
 FUEL        C6H6                         1.0000000     83032.119    300.000
 OXIDANT     O2                           7.5000000        54.358    300.000
 OXIDANT     N2                          28.2143000        53.881    300.000

 O/F=   11.99177  %FUEL=  7.697178  R,EQ.RATIO= 1.100000  PHI,EQ.RATIO= 1.100000

 THERMODYNAMIC PROPERTIES

 P, BAR            1.0000   1.0000   1.0000   1.0000   1.0000   1.0000   1.0000   1.0000
 T, K             4000.00  5000.00  6000.00  7000.00  8000.00  9000.00 10000.00 11000.00
 RHO, KG/CU M    6.9803-2 5.3569-2 4.1171-2 2.8103-2 2.0840-2 1.7810-2 1.5907-2 1.4435-2
 H, KJ/KG         6938.73  9511.70  14695.5  29093.4  42279.8  47294.7  49989.1  52251.6
 U, KJ/KG         5506.14  7644.93  12266.6  25535.1  37481.4  41680.0  43702.6  45323.9
 G, KJ/KG        -39465.5 -51369.1 -63936.1 -78044.7 -94374.1-111804.5-129634.5-147707.8
 S, KJ/(KG)(K)    11.6011  12.1762  13.1053  15.3054  17.0817  17.6777  17.9624  18.1781

 M, (1/n)          23.215   22.270   20.539   16.356   13.862   13.328   13.226   13.202
 (dLV/dLP)t      -1.02318 -1.01011 -1.04526 -1.10004 -1.04184 -1.00997 -1.00265 -1.00087
 (dLV/dLT)p        1.3277   1.1851   1.8997   2.7588   1.6434   1.1372   1.0330   1.0098
 Cp, KJ/(KG)(K)    3.1733   2.9131   8.8934  17.5721   7.9410   3.2580   2.3705   2.1975
 GAMMAs            1.2133   1.2046   1.1351   1.1365   1.1935   1.3117   1.3895   1.4112
 SON VEL,M/SEC     1318.4   1499.6   1660.4   2011.0   2393.1   2713.8   2955.6   3126.7

 MOLE FRACTIONS

 *C              1.4505-7 8.7616-5 6.5005-3 5.2357-2 7.5425-2 7.7634-2 7.7895-2 7.7952-2
 *CH             1.3650-9 1.1133-7 1.8571-6 4.2854-6 2.4034-6 1.2824-6 7.6871-7 5.0023-7
 CH2             3.321-11 2.029-10 5.051-10 2.481-10 4.364-11 1.034-11 3.327-12 1.314-12
 CH3             6.204-13 2.515-13 8.887-14 9.151-15 5.041-16 5.318-17 9.211-18 2.208-18
 CH2OH           1.099-14 4.171-16 2.599-17 8.482-19 1.834-20 8.997-22 8.427-23 1.216-23
 CH3O            4.397-15 2.404-16 1.975-17 8.044-19 2.091-20 1.200-21 1.289-22 2.099-23
 CH4             2.522-15 1.015-16 7.533-18 2.403-19 6.064-21 4.100-22 5.399-23 1.089-23
 *CN             4.4572-7 4.9010-5 1.0834-3 2.6772-3 1.0343-3 3.1156-4 1.1134-4 4.7230-5
 CNN             9.677-13 3.612-10 1.627 -8 4.772 -8 1.343 -8 2.538 -9 5.874-10 1.702-10
 *CO             1.3494-1 1.3141-1 1.1383-1 4.1610-2 5.4673-3 8.4107-4 1.8481-4 5.3499-5
 *CO2            2.315 -3 1.198 -4 1.304 -5 1.226 -6 5.570 -8 3.713 -9 4.276-10 7.412-11
 COOH            1.555 -8 6.551-10 5.264-11 3.290-12 1.086-13 6.041-15 6.025-16 9.106-17
 *C2             5.551-13 5.059 -9 2.366 -6 2.632 -5 1.455 -5 5.510 -6 2.438 -6 1.246 -6
 C2H             1.682-13 9.282-11 5.714 -9 1.242 -8 2.013 -9 3.185-10 7.134-11 2.086-11
 C2H2,acetylene  1.513-14 3.228-13 2.009-12 7.335-13 3.206-14 2.040-15 2.289-16 3.866-17
 C2H2,vinylidene 2.600-16 1.458-14 1.657-13 8.970-14 5.119-15 3.918-16 5.008-17 9.273-18
 CH2CO,ketene    6.024-15 5.998-15 4.095-15 3.331-16 4.339-18 1.026-19 5.172-21 4.489-22
 CCN             8.920-16 7.037-12 2.717 -9 1.888 -8 4.702 -9 7.697-10 1.637-10 4.483-11
 CNC             2.695-14 1.049-10 2.523 -8 1.248 -7 2.403 -8 3.215 -9 5.812-10 1.392-10
 OCCN            2.227-12 1.296-10 1.654 -9 1.119 -9 4.565-11 1.777-12 1.204-13 1.295-14
 C2N2            6.610-14 3.037-11 1.673 -9 2.147 -9 9.939-11 3.617-12 2.216-13 2.174-14
 C2O             1.289-10 1.283 -8 2.580 -7 3.358 -7 3.473 -8 3.448 -9 5.227-10 1.108-10
 *C3             1.070-17 7.308-13 1.385 -9 1.592 -8 2.770 -9 3.347-10 5.853-11 1.398-11
 C3O2            1.447-15 3.224-14 2.167-13 5.324-14 4.466-16 4.725-18 1.176-19 5.679-21
 *C4             7.358-25 1.643-18 3.293-14 7.448-13 6.373-14 3.394-15 2.998-16 4.073-17
 *C5             1.016-29 1.959-22 1.682-17 3.939-16 1.031-17 1.677-19 5.587-21 3.391-22
 *H              1.1452-1 1.2985-1 1.2113-1 9.6612-2 8.1921-2 7.8780-2 7.8186-2 7.8049-2
 HCN             9.697 -8 4.834 -7 1.148 -6 4.776 -7 4.830 -8 5.562 -9 9.363-10 2.140-10
 HCO             5.427 -7 3.758 -7 2.226 -7 5.203 -8 4.906 -9 6.356-10 1.239-10 3.235-11
 HCCN            1.660-17 1.259-14 8.861-13 1.543-12 1.375-13 1.111-14 1.382-15 2.457-16
 HCCO            3.012-13 4.076-12 1.838-11 6.849-12 2.773-13 1.447-14 1.340-15 1.901-16
 HNC             3.096 -8 2.199 -7 6.563 -7 3.200 -7 3.630 -8 4.558 -9 8.204-10 1.977-10
 HNCO            4.139 -9 1.169 -9 3.526-10 3.702-11 1.244-12 5.872-14 4.846-15 6.164-16
 HNO             8.130 -7 1.241 -7 2.460 -8 5.233 -9 1.002 -9 2.386-10 7.382-11 2.792-11
 HNO2            5.142 -9 6.463-11 2.068-12 1.311-13 9.447-15 1.013-15 1.656-16 3.705-17
 HNO3            6.560-14 1.645-16 1.563-18 4.616-20 1.759-21 1.113-22 1.198-23 1.902-24
 HO2             1.216 -6 2.518 -8 1.227 -9 1.454-10 2.590-11 6.928-12 2.485-12 1.076-12
 *H2             5.1475-3 4.0651-4 5.4883-5 9.2322-6 2.4509-6 1.0441-6 5.5205-7 3.2946-7
 HCHO,formaldehy 3.010-10 2.450-11 3.012-12 1.929-13 6.950-15 4.670-16 5.527-17 9.656-18
 HCOOH           4.260-11 2.043-13 3.317-15 5.551-17 6.860-19 1.945-20 1.159-21 1.155-22
 H2O             7.865 -4 3.572 -6 6.228 -8 2.685 -9 2.405-10 4.264-11 1.124-11 3.808-12
 H2O2            3.663 -9 8.719-12 8.632-14 2.762-15 1.860-16 2.564-17 5.556-18 1.605-18
 *N              1.3467-3 2.4487-2 1.5716-1 4.3462-1 6.1152-1 6.5514-1 6.6378-1 6.6582-1
 NCO             9.308 -8 4.339 -7 9.938 -7 5.310 -7 6.031 -8 6.726 -9 1.080 -9 2.360-10
 *NH             1.3458-5 3.2324-5 4.5897-5 3.5961-5 1.9546-5 1.0795-5 6.5085-6 4.2338-6
 NH2             1.221 -7 2.978 -8 7.900 -9 1.567 -9 3.059-10 8.353-11 2.948-11 1.249-11
 NH3             1.171 -9 1.937-11 7.338-13 3.045-14 1.852-15 2.235-16 4.208-17 1.072-17
 NH2OH           2.147-13 1.056-15 1.561-17 3.666-19 1.364-20 1.089-21 1.477-22 2.879-23
 *NO             1.8859-2 8.2335-3 3.7341-3 1.6894-3 5.6412-4 1.8892-4 7.5145-5 3.4879-5
 NO2             1.232 -6 1.075 -7 1.496 -8 3.318 -9 6.208-10 1.299-10 3.586-11 1.238-11
 NO3             1.362-12 4.110-14 2.394-15 3.082-16 3.527-17 4.805-18 9.328-19 2.390-19
 *N2             5.7665-1 5.4647-1 4.3811-1 1.9389-1 4.3798-2 9.0295-3 2.2957-3 7.2613-4
 NCN             2.280-11 3.815 -9 1.005 -7 2.009 -7 4.235 -8 6.393 -9 1.235 -9 3.085-10
 N2H2            7.597-12 2.535-12 7.771-13 1.249-13 1.357-14 1.913-15 3.786-16 9.853-17
 N2O             9.882 -7 4.601 -7 2.050 -7 6.737 -8 1.157 -8 1.882 -9 3.985-10 1.083-10
 N2O3            2.359-14 8.109-16 4.767-17 4.501-18 2.656-19 1.759-20 1.824-21 2.754-22
 N3              5.818-10 8.349 -9 3.811 -8 4.259 -8 1.252 -8 2.569 -9 6.147-10 1.806-10
 N3H             4.936-12 8.522-12 8.167-12 2.521-12 2.847-13 3.044-14 4.438-15 8.748-16
 *O              1.2724-1 1.5738-1 1.5813-1 1.7641-1 1.8022-1 1.7805-1 1.7746-1 1.7731-1
 *OH             1.0854-2 9.6653-4 1.4247-4 3.3546-5 1.0645-5 4.5974-6 2.4016-6 1.4092-6
 *O2             7.3166-3 5.0562-4 6.4575-5 1.8323-5 6.2951-6 2.5816-6 1.2761-6 7.1595-7
 O3              5.411 -9 3.658-10 4.328-11 1.325-11 4.607-12 1.876-12 9.385-13 5.383-13

  * THERMODYNAMIC PROPERTIES FITTED TO 20000.K









               THERMODYNAMIC EQUILIBRIUM PROPERTIES AT ASSIGNED

                           TEMPERATURE AND PRESSURE

 CASE =                

             REACTANT                       MOLES         ENERGY      TEMP
                                                         KJ/KG-MOL      K
 FUEL        C6H6                         1.0000000     83032.119    300.000
 OXIDANT     O2                           7.5000000        54.358    300.000
 OXIDANT     N2                          28.2143000        53.881    300.000

 O/F=   11.99177  %FUEL=  7.697178  R,EQ.RATIO= 1.100000  PHI,EQ.RATIO= 1.100000

 THERMODYNAMIC PROPERTIES

 P, BAR            1.0000   1.0000   1.0000   1.0000   1.0000   1.0000   1.0000   1.0000
 T, K            12000.00 13000.00 14000.00 15000.00 16000.00  2000.00  3000.00  4000.00
 RHO, KG/CU M    1.3225-2 1.2205-2 1.1333-2 1.0577-2 9.9155-3 1.7608-1 1.0907-1 6.9803-2
 H, KJ/KG         54425.7  56581.7  58738.2  60902.1  63076.3  -531.86  2323.89  6938.73
 U, KJ/KG         46864.2  48388.5  49914.1  51447.4  52991.1 -1099.78  1407.03  5506.14
 G, KJ/KG       -165982.2-184437.0-203057.7-221832.9-240752.7 -18837.4 -28462.5 -39465.5
 S, KJ/(KG)(K)    18.3673  18.5399  18.6997  18.8490  18.9893   9.1528  10.2621  11.6011

 M, (1/n)          13.195   13.193   13.192   13.191   13.191   29.281   27.205   23.215
 (dLV/dLP)t      -1.00034 -1.00015 -1.00008 -1.00004 -1.00003 -1.00013 -1.02356 -1.02318
 (dLV/dLT)p        1.0035   1.0015   1.0007   1.0004   1.0002   1.0046   1.4914   1.3277
 Cp, KJ/(KG)(K)    2.1600   2.1546   2.1595   2.1688   2.1799   1.4366   4.6365   3.1733
 GAMMAs            1.4153   1.4149   1.4128   1.4100   1.4070   1.2490   1.1403   1.2133
 SON VEL,M/SEC     3271.4   3404.7   3530.8   3651.2   3766.9    842.2   1022.5   1318.4

 MOLE FRACTIONS

 *C              7.797 -2 7.798 -2 7.798 -2 7.798 -2 7.799 -2 6.921-18 1.376-11 1.450 -7
 *CH             3.453 -7 2.491 -7 1.858 -7 1.424 -7 1.115 -7 2.505-18 7.091-13 1.365 -9
 CH2             6.022-13 3.091-13 1.733-13 1.042-13 6.628-14 3.498-17 2.394-13 3.321-11
 CH3             6.699-19 2.431-19 1.014-19 4.724-20 2.407-20 9.692-16 8.184-14 6.204-13
 CH2OH           2.402-24 6.037-25 1.830-25 6.440-26 2.557-26 1.555-16 1.442-14 1.099-14
 CH3O            4.624-24 1.282-24 4.250-25 1.624-25 6.962-26 1.511-17 3.410-15 4.397-15
 CH4             2.981-24 1.025-24 4.200-25 1.974-25 1.035-25 2.029-15 3.875-15 2.522-15
 CH3OH           7.652-31 1.474-31 3.574-32 1.040-32 3.510-33 3.969-17 1.525-16 1.213-17
 *CN             2.295 -5 1.241 -5 7.290 -6 4.582 -6 3.040 -6 1.219-13 7.798-10 4.457 -7
 CNN             5.916-11 2.373-11 1.067-11 5.258-12 2.793-12 5.750-22 2.260-16 9.677-13
 *CO             1.9123-5 8.0638-6 3.8793-6 2.0756-6 1.2108-6 3.5014-2 1.0890-1 1.3494-1
 *CO2            1.745-11 5.196-12 1.859-12 7.687-13 3.573-13 1.381 -1 5.195 -2 2.315 -3
 COOH            1.872-17 4.873-18 1.525-18 5.527-19 2.257-19 4.111 -9 9.382 -8 1.555 -8
 *C2             7.104 -7 4.403 -7 2.910 -7 2.022 -7 1.461 -7 1.193-25 2.304-18 5.551-13
 C2H             7.448-12 3.096-12 1.449-12 7.453-13 4.134-13 8.233-23 1.462-17 1.682-13
 C2H2,acetylene  8.827-18 2.535-18 8.705-19 3.441-19 1.524-19 1.809-19 6.089-17 1.513-14
 C2H2,vinylidene 2.259-18 6.783-19 2.398-19 9.651-20 4.312-20 1.669-23 1.921-19 2.600-16
 CH2CO,ketene    5.826-23 1.028-23 2.308-24 6.269-25 1.986-25 2.076-17 7.638-16 6.024-15
 CCN             1.497-11 5.833-12 2.565-12 1.243-12 6.513-13 4.082-28 4.903-21 8.920-16
 CNC             4.156-11 1.471-11 5.956-12 2.684-12 1.320-12 4.244-25 4.811-19 2.695-14
 OCCN            1.984-15 3.994-16 9.968-17 2.953-17 1.006-17 3.647-18 8.765-15 2.227-12
 C2N2            3.080-15 5.802-16 1.368-16 3.860-17 1.260-17 6.965-20 4.732-17 6.610-14
 C2O             3.026-11 1.002-11 3.864-12 1.679-12 8.044-13 1.591-17 2.033-13 1.289-10
 *C3             4.221-12 1.522-12 6.296-13 2.899-13 1.455-13 3.266-31 6.270-24 1.070-17
 C3O2            4.507-22 5.237-23 8.200-24 1.627-24 3.912-25 1.039-19 2.289-17 1.447-15
 *H              7.8010-2 7.7997-2 7.7992-2 7.7989-2 7.7989-2 1.0964-4 1.8170-2 1.1452-1
 HCN             6.176-11 2.135-11 8.504-12 3.794-12 1.856-12 2.186-10 5.574 -9 9.697 -8
 HCO             1.049-11 4.015-12 1.750-12 8.454-13 4.441-13 1.352 -9 1.509 -7 5.427 -7
 HCCO            3.711-17 9.243-18 2.785-18 9.767-19 3.870-19 1.200-18 2.497-15 3.012-13
 HNC             5.953-11 2.130-11 8.731-12 3.989-12 1.990-12 1.103-11 9.706-10 3.096 -8
 HNCO            1.088-16 2.473-17 6.856-18 2.229-18 8.243-19 1.133 -9 5.568 -9 4.139 -9
 HNO             1.230-11 6.094-12 3.314-12 1.941-12 1.208-12 1.974 -9 8.140 -7 8.130 -7
 HNO2            1.049-17 3.562-18 1.396-18 6.138-19 2.964-19 1.765-10 6.125 -8 5.142 -9
 HNO3            4.042-25 1.075-25 3.412-26 1.248-26 5.122-27 5.778-16 2.301-12 6.560-14
 HO2             5.342-13 2.941-13 1.755-13 1.118-13 7.501-14 3.223 -9 6.004 -6 1.216 -6
 *H2             2.1364-7 1.4729-7 1.0641-7 7.9732-8 6.1507-8 4.5308-3 1.3199-2 5.1475-3
 HCHO,formaldehy 2.246-18 6.497-19 2.229-19 8.759-20 3.841-20 6.561-11 5.918-10 3.010-10
 HCOOH           1.681-23 3.265-24 7.955-25 2.320-25 7.832-26 1.138 -9 1.903 -9 4.260-11
 H2O             1.545-12 7.191-13 3.725-13 2.101-13 1.269-13 8.186 -2 4.660 -2 7.865 -4
 H2O2            5.700-19 2.368-19 1.112-19 5.756-20 3.224-20 7.981-10 1.286 -7 3.663 -9
 *N              6.664 -1 6.666 -1 6.667 -1 6.667 -1 6.668 -1 7.755-10 1.147 -5 1.347 -3
 NCO             6.541-11 2.179-11 8.393-12 3.631-12 1.727-12 1.261-11 6.060 -9 9.308 -8
 *NH             2.920 -6 2.107 -6 1.575 -6 1.210 -6 9.516 -7 3.037-10 6.424 -7 1.346 -5
 NH2             6.067-12 3.274-12 1.919-12 1.202-12 7.940-13 4.544-10 5.170 -8 1.221 -7
 NH3             3.417-18 1.291-18 5.580-19 2.683-19 1.407-19 5.312 -9 8.576 -9 1.171 -9
 NH2OH           7.322-24 2.283-24 8.353-25 3.472-25 1.600-25 4.128-14 2.458-12 2.147-13
 *NO             1.8283-5 1.0542-5 6.5553-6 4.3299-6 3.0029-6 8.4329-5 1.5290-2 1.8859-2
 NO2             5.073-12 2.372-12 1.230-12 6.939-13 4.188-13 1.667 -9 3.075 -6 1.232 -6
 NO3             7.562-20 2.817-20 1.194-20 5.612-21 2.871-21 2.727-17 3.878-12 1.362-12
 *N2             2.7476-4 1.2009-4 5.8997-5 3.1897-5 1.8663-5 7.4004-1 6.7996-1 5.7665-1
 NCN             9.472-11 3.421-11 1.405-11 6.401-12 3.174-12 7.462-19 2.026-14 2.280-11
 N2H2            3.164-17 1.197-17 5.148-18 2.457-18 1.275-18 9.916-15 2.174-12 7.597-12
 N2O             3.588-11 1.388-11 6.076-12 2.938-12 1.541-12 4.610 -9 8.067 -7 9.882 -7
 N2O3            5.565-23 1.410-23 4.273-24 1.496-24 5.893-25 2.806-19 5.795-14 2.359-14
 N3              6.302-11 2.523-11 1.129-11 5.523-12 2.911-12 1.227-15 8.114-12 5.818-10
 N3H             2.194-16 6.654-17 2.347-17 9.356-18 4.122-18 7.321-16 4.604-13 4.936-12
 *O              1.7727-1 1.7725-1 1.7725-1 1.7725-1 1.7725-1 3.4814-6 1.7875-2 1.2724-1
 *OH             8.9749-7 6.0776-7 4.3153-7 3.1809-7 2.4163-7 2.2344-4 2.3078-2 1.0854-2
 *O2             4.3999-7 2.8952-7 2.0082-7 1.4519-7 1.0850-7 2.7102-5 2.4956-2 7.3166-3
 O3              3.406-13 2.321-13 1.674-13 1.264-13 9.900-14 8.348-15 5.303 -9 5.411 -9

  * THERMODYNAMIC PROPERTIES FITTED TO 20000.K









               THERMODYNAMIC EQUILIBRIUM PROPERTIES AT ASSIGNED

                           TEMPERATURE AND PRESSURE

 CASE =                

             REACTANT                       MOLES         ENERGY      TEMP
                                                         KJ/KG-MOL      K
 FUEL        C6H6                         1.0000000     83032.119    300.000
 OXIDANT     O2                           7.5000000        54.358    300.000
 OXIDANT     N2                          28.2143000        53.881    300.000

 O/F=   11.99177  %FUEL=  7.697178  R,EQ.RATIO= 1.100000  PHI,EQ.RATIO= 1.100000

 THERMODYNAMIC PROPERTIES

 P, BAR            1.0000   1.0000   1.0000   1.0000   1.0000   1.0000   1.0000   1.0000
 T, K             5000.00  6000.00  7000.00  8000.00  9000.00 10000.00 11000.00 12000.00
 RHO, KG/CU M    5.3569-2 4.1171-2 2.8103-2 2.0840-2 1.7810-2 1.5907-2 1.4435-2 1.3225-2
 H, KJ/KG         9511.70  14695.5  29093.4  42279.8  47294.7  49989.1  52251.6  54425.7
 U, KJ/KG         7644.93  12266.6  25535.1  37481.4  41680.0  43702.6  45323.9  46864.2
 G, KJ/KG        -51369.1 -63936.1 -78044.7 -94374.1-111804.5-129634.5-147707.8-165982.2
 S, KJ/(KG)(K)    12.1762  13.1053  15.3054  17.0817  17.6777  17.9624  18.1781  18.3673

 M, (1/n)          22.270   20.539   16.356   13.862   13.328   13.226   13.202   13.195
 (dLV/dLP)t      -1.01011 -1.04526 -1.10004 -1.04184 -1.00997 -1.00265 -1.00087 -1.00034
 (dLV/dLT)p        1.1851   1.8997   2.7588   1.6434   1.1372   1.0330   1.0098   1.0035
 Cp, KJ/(KG)(K)    2.9131   8.8934  17.5721   7.9410   3.2580   2.3705   2.1975   2.1600
 GAMMAs            1.2046   1.1351   1.1365   1.1935   1.3117   1.3895   1.4112   1.4153
 SON VEL,M/SEC     1499.6   1660.4   2011.0   2393.1   2713.8   2955.6   3126.7   3271.4

 MOLE FRACTIONS

 *C              8.7616-5 6.5005-3 5.2357-2 7.5425-2 7.7634-2 7.7895-2 7.7952-2 7.7971-2
 *CH             1.1133-7 1.8571-6 4.2854-6 2.4034-6 1.2824-6 7.6871-7 5.0023-7 3.4527-7
 CH2             2.029-10 5.051-10 2.481-10 4.364-11 1.034-11 3.327-12 1.314-12 6.022-13
 CH3             2.515-13 8.887-14 9.151-15 5.041-16 5.318-17 9.211-18 2.208-18 6.699-19
 CH2OH           4.171-16 2.599-17 8.482-19 1.834-20 8.997-22 8.427-23 1.216-23 2.402-24
 CH3O            2.404-16 1.975-17 8.044-19 2.091-20 1.200-21 1.289-22 2.099-23 4.624-24
 CH4             1.015-16 7.533-18 2.403-19 6.064-21 4.100-22 5.399-23 1.089-23 2.981-24
 *CN             4.9010-5 1.0834-3 2.6772-3 1.0343-3 3.1156-4 1.1134-4 4.7230-5 2.2953-5
 CNN             3.612-10 1.627 -8 4.772 -8 1.343 -8 2.538 -9 5.874-10 1.702-10 5.916-11
 *CO             1.3141-1 1.1383-1 4.1610-2 5.4673-3 8.4107-4 1.8481-4 5.3499-5 1.9123-5
 *CO2            1.198 -4 1.304 -5 1.226 -6 5.570 -8 3.713 -9 4.276-10 7.412-11 1.745-11
 COOH            6.551-10 5.264-11 3.290-12 1.086-13 6.041-15 6.025-16 9.106-17 1.872-17
 *C2             5.0588-9 2.3662-6 2.6318-5 1.4546-5 5.5100-6 2.4378-6 1.2457-6 7.1039-7
 C2H             9.282-11 5.714 -9 1.242 -8 2.013 -9 3.185-10 7.134-11 2.086-11 7.448-12
 C2H2,acetylene  3.228-13 2.009-12 7.335-13 3.206-14 2.040-15 2.289-16 3.866-17 8.827-18
 C2H2,vinylidene 1.458-14 1.657-13 8.970-14 5.119-15 3.918-16 5.008-17 9.273-18 2.259-18
 CH2CO,ketene    5.998-15 4.095-15 3.331-16 4.339-18 1.026-19 5.172-21 4.489-22 5.826-23
 CCN             7.037-12 2.717 -9 1.888 -8 4.702 -9 7.697-10 1.637-10 4.483-11 1.497-11
 CNC             1.049-10 2.523 -8 1.248 -7 2.403 -8 3.215 -9 5.812-10 1.392-10 4.156-11
 OCCN            1.296-10 1.654 -9 1.119 -9 4.565-11 1.777-12 1.204-13 1.295-14 1.984-15
 C2N2            3.037-11 1.673 -9 2.147 -9 9.939-11 3.617-12 2.216-13 2.174-14 3.080-15
 C2O             1.283 -8 2.580 -7 3.358 -7 3.473 -8 3.448 -9 5.227-10 1.108-10 3.026-11
 *C3             7.308-13 1.385 -9 1.592 -8 2.770 -9 3.347-10 5.853-11 1.398-11 4.221-12
 C3O2            3.224-14 2.167-13 5.324-14 4.466-16 4.725-18 1.176-19 5.679-21 4.507-22
 *C4             1.643-18 3.293-14 7.448-13 6.373-14 3.394-15 2.998-16 4.073-17 7.670-18
 *C5             1.959-22 1.682-17 3.939-16 1.031-17 1.677-19 5.587-21 3.391-22 3.245-23
 *H              1.2985-1 1.2113-1 9.6612-2 8.1921-2 7.8780-2 7.8186-2 7.8049-2 7.8010-2
 HCN             4.834 -7 1.148 -6 4.776 -7 4.830 -8 5.562 -9 9.363-10 2.140-10 6.176-11
 HCO             3.758 -7 2.226 -7 5.203 -8 4.906 -9 6.356-10 1.239-10 3.235-11 1.049-11
 HCCN            1.259-14 8.861-13 1.543-12 1.375-13 1.111-14 1.382-15 2.457-16 5.745-17
 HCCO            4.076-12 1.838-11 6.849-12 2.773-13 1.447-14 1.340-15 1.901-16 3.711-17
 HNC             2.199 -7 6.563 -7 3.200 -7 3.630 -8 4.558 -9 8.204-10 1.977-10 5.953-11
 HNCO            1.169 -9 3.526-10 3.702-11 1.244-12 5.872-14 4.846-15 6.164-16 1.088-16
 HNO             1.241 -7 2.460 -8 5.233 -9 1.002 -9 2.386-10 7.382-11 2.792-11 1.230-11
 HNO2            6.463-11 2.068-12 1.311-13 9.447-15 1.013-15 1.656-16 3.705-17 1.049-17
 HNO3            1.645-16 1.563-18 4.616-20 1.759-21 1.113-22 1.198-23 1.902-24 4.042-25
 HO2             2.518 -8 1.227 -9 1.454-10 2.590-11 6.928-12 2.485-12 1.076-12 5.342-13
 *H2             4.0651-4 5.4883-5 9.2322-6 2.4509-6 1.0441-6 5.5205-7 3.2946-7 2.1364-7
 HCHO,formaldehy 2.450-11 3.012-12 1.929-13 6.950-15 4.670-16 5.527-17 9.656-18 2.246-18
 HCOOH           2.043-13 3.317-15 5.551-17 6.860-19 1.945-20 1.159-21 1.155-22 1.681-23
 H2O             3.572 -6 6.228 -8 2.685 -9 2.405-10 4.264-11 1.124-11 3.808-12 1.545-12
 H2O2            8.719-12 8.632-14 2.762-15 1.860-16 2.564-17 5.556-18 1.605-18 5.700-19
 *N              2.4487-2 1.5716-1 4.3462-1 6.1152-1 6.5514-1 6.6378-1 6.6582-1 6.6641-1
 NCO             4.339 -7 9.938 -7 5.310 -7 6.031 -8 6.726 -9 1.080 -9 2.360-10 6.541-11
 *NH             3.2324-5 4.5897-5 3.5961-5 1.9546-5 1.0795-5 6.5085-6 4.2338-6 2.9201-6
 NH2             2.978 -8 7.900 -9 1.567 -9 3.059-10 8.353-11 2.948-11 1.249-11 6.067-12
 NH3             1.937-11 7.338-13 3.045-14 1.852-15 2.235-16 4.208-17 1.072-17 3.417-18
 NH2OH           1.056-15 1.561-17 3.666-19 1.364-20 1.089-21 1.477-22 2.879-23 7.322-24
 *NO             8.2335-3 3.7341-3 1.6894-3 5.6412-4 1.8892-4 7.5145-5 3.4879-5 1.8283-5
 NO2             1.075 -7 1.496 -8 3.318 -9 6.208-10 1.299-10 3.586-11 1.238-11 5.073-12
 NO3             4.110-14 2.394-15 3.082-16 3.527-17 4.805-18 9.328-19 2.390-19 7.562-20
 *N2             5.4647-1 4.3811-1 1.9389-1 4.3798-2 9.0295-3 2.2957-3 7.2613-4 2.7476-4
 NCN             3.815 -9 1.005 -7 2.009 -7 4.235 -8 6.393 -9 1.235 -9 3.085-10 9.472-11
 N2H2            2.535-12 7.771-13 1.249-13 1.357-14 1.913-15 3.786-16 9.853-17 3.164-17
 N2O             4.601 -7 2.050 -7 6.737 -8 1.157 -8 1.882 -9 3.985-10 1.083-10 3.588-11
 N2O3            8.109-16 4.767-17 4.501-18 2.656-19 1.759-20 1.824-21 2.754-22 5.565-23
 N3              8.349 -9 3.811 -8 4.259 -8 1.252 -8 2.569 -9 6.147-10 1.806-10 6.302-11
 N3H             8.522-12 8.167-12 2.521-12 2.847-13 3.044-14 4.438-15 8.748-16 2.194-16
 *O              1.5738-1 1.5813-1 1.7641-1 1.8022-1 1.7805-1 1.7746-1 1.7731-1 1.7727-1
 *OH             9.6653-4 1.4247-4 3.3546-5 1.0645-5 4.5974-6 2.4016-6 1.4092-6 8.9749-7
 *O2             5.0562-4 6.4575-5 1.8323-5 6.2951-6 2.5816-6 1.2761-6 7.1595-7 4.3999-7
 O3              3.658-10 4.328-11 1.325-11 4.607-12 1.876-12 9.385-13 5.383-13 3.406-13

  * THERMODYNAMIC PROPERTIES FITTED TO 20000.K









               THERMODYNAMIC EQUILIBRIUM PROPERTIES AT ASSIGNED

                           TEMPERATURE AND PRESSURE

 CASE =                

             REACTANT                       MOLES         ENERGY      TEMP
                                                         KJ/KG-MOL      K
 FUEL        C6H6                         1.0000000     83032.119    300.000
 OXIDANT     O2                           7.5000000        54.358    300.000
 OXIDANT     N2                          28.2143000        53.881    300.000

 O/F=   11.99177  %FUEL=  7.697178  R,EQ.RATIO= 1.100000  PHI,EQ.RATIO= 1.100000

 THERMODYNAMIC PROPERTIES

 P, BAR            1.0000   1.0000   1.0000   1.0000   1.0000   1.0000   1.0000   1.0000
 T, K            13000.00 14000.00 15000.00 16000.00  2000.00  3000.00  4000.00  5000.00
 RHO, KG/CU M    1.2205-2 1.1333-2 1.0577-2 9.9155-3 1.7608-1 1.0907-1 6.9803-2 5.3569-2
 H, KJ/KG         56581.7  58738.2  60902.1  63076.3  -531.86  2323.89  6938.73  9511.70
 U, KJ/KG         48388.5  49914.1  51447.4  52991.1 -1099.78  1407.03  5506.14  7644.93
 G, KJ/KG       -184437.0-203057.7-221832.9-240752.7 -18837.4 -28462.5 -39465.5 -51369.1
 S, KJ/(KG)(K)    18.5399  18.6997  18.8490  18.9893   9.1528  10.2621  11.6011  12.1762

 M, (1/n)          13.193   13.192   13.191   13.191   29.281   27.205   23.215   22.270
 (dLV/dLP)t      -1.00015 -1.00008 -1.00004 -1.00003 -1.00013 -1.02356 -1.02318 -1.01011
 (dLV/dLT)p        1.0015   1.0007   1.0004   1.0002   1.0046   1.4914   1.3277   1.1851
 Cp, KJ/(KG)(K)    2.1546   2.1595   2.1688   2.1799   1.4366   4.6365   3.1733   2.9131
 GAMMAs            1.4149   1.4128   1.4100   1.4070   1.2490   1.1403   1.2133   1.2046
 SON VEL,M/SEC     3404.7   3530.8   3651.2   3766.9    842.2   1022.5   1318.4   1499.6

 MOLE FRACTIONS

 *C              7.798 -2 7.798 -2 7.798 -2 7.799 -2 6.921-18 1.376-11 1.450 -7 8.762 -5
 *CH             2.491 -7 1.858 -7 1.424 -7 1.115 -7 2.505-18 7.091-13 1.365 -9 1.113 -7
 CH2             3.091-13 1.733-13 1.042-13 6.628-14 3.498-17 2.394-13 3.321-11 2.029-10
 CH3             2.431-19 1.014-19 4.724-20 2.407-20 9.692-16 8.184-14 6.204-13 2.515-13
 CH2OH           6.037-25 1.830-25 6.440-26 2.557-26 1.555-16 1.442-14 1.099-14 4.171-16
 CH3O            1.282-24 4.250-25 1.624-25 6.962-26 1.511-17 3.410-15 4.397-15 2.404-16
 CH4             1.025-24 4.200-25 1.974-25 1.035-25 2.029-15 3.875-15 2.522-15 1.015-16
 CH3OH           1.474-31 3.574-32 1.040-32 3.510-33 3.969-17 1.525-16 1.213-17 4.629-20
 *CN             1.241 -5 7.290 -6 4.582 -6 3.040 -6 1.219-13 7.798-10 4.457 -7 4.901 -5
 CNN             2.373-11 1.067-11 5.258-12 2.793-12 5.750-22 2.260-16 9.677-13 3.612-10
 *CO             8.0638-6 3.8793-6 2.0756-6 1.2108-6 3.5014-2 1.0890-1 1.3494-1 1.3141-1
 *CO2            5.196-12 1.859-12 7.687-13 3.573-13 1.381 -1 5.195 -2 2.315 -3 1.198 -4
 COOH            4.873-18 1.525-18 5.527-19 2.257-19 4.111 -9 9.382 -8 1.555 -8 6.551-10
 *C2             4.403 -7 2.910 -7 2.022 -7 1.461 -7 1.193-25 2.304-18 5.551-13 5.059 -9
 C2H             3.096-12 1.449-12 7.453-13 4.134-13 8.233-23 1.462-17 1.682-13 9.282-11
 C2H2,acetylene  2.535-18 8.705-19 3.441-19 1.524-19 1.809-19 6.089-17 1.513-14 3.228-13
 C2H2,vinylidene 6.783-19 2.398-19 9.651-20 4.312-20 1.669-23 1.921-19 2.600-16 1.458-14
 CH2CO,ketene    1.028-23 2.308-24 6.269-25 1.986-25 2.076-17 7.638-16 6.024-15 5.998-15
 CCN             5.833-12 2.565-12 1.243-12 6.513-13 4.082-28 4.903-21 8.920-16 7.037-12
 CNC             1.471-11 5.956-12 2.684-12 1.320-12 4.244-25 4.811-19 2.695-14 1.049-10
 OCCN            3.994-16 9.968-17 2.953-17 1.006-17 3.647-18 8.765-15 2.227-12 1.296-10
 C2N2            5.802-16 1.368-16 3.860-17 1.260-17 6.965-20 4.732-17 6.610-14 3.037-11
 C2O             1.002-11 3.864-12 1.679-12 8.044-13 1.591-17 2.033-13 1.289-10 1.283 -8
 *C3             1.522-12 6.296-13 2.899-13 1.455-13 3.266-31 6.270-24 1.070-17 7.308-13
 C3O2            5.237-23 8.200-24 1.627-24 3.912-25 1.039-19 2.289-17 1.447-15 3.224-14
 *H              7.7997-2 7.7992-2 7.7989-2 7.7989-2 1.0964-4 1.8170-2 1.1452-1 1.2985-1
 HCN             2.135-11 8.504-12 3.794-12 1.856-12 2.186-10 5.574 -9 9.697 -8 4.834 -7
 HCO             4.015-12 1.750-12 8.454-13 4.441-13 1.352 -9 1.509 -7 5.427 -7 3.758 -7
 HCCN            1.659-17 5.653-18 2.198-18 9.509-19 1.917-27 9.124-22 1.660-17 1.259-14
 HCCO            9.243-18 2.785-18 9.767-19 3.870-19 1.200-18 2.497-15 3.012-13 4.076-12
 HNC             2.130-11 8.731-12 3.989-12 1.990-12 1.103-11 9.706-10 3.096 -8 2.199 -7
 HNCO            2.473-17 6.856-18 2.229-18 8.243-19 1.133 -9 5.568 -9 4.139 -9 1.169 -9
 HNO             6.094-12 3.314-12 1.941-12 1.208-12 1.974 -9 8.140 -7 8.130 -7 1.241 -7
 HNO2            3.562-18 1.396-18 6.138-19 2.964-19 1.765-10 6.125 -8 5.142 -9 6.463-11
 HNO3            1.075-25 3.412-26 1.248-26 5.122-27 5.778-16 2.301-12 6.560-14 1.645-16
 HO2             2.941-13 1.755-13 1.118-13 7.501-14 3.223 -9 6.004 -6 1.216 -6 2.518 -8
 *H2             1.4729-7 1.0641-7 7.9732-8 6.1507-8 4.5308-3 1.3199-2 5.1475-3 4.0651-4
 HCHO,formaldehy 6.497-19 2.229-19 8.759-20 3.841-20 6.561-11 5.918-10 3.010-10 2.450-11
 HCOOH           3.265-24 7.955-25 2.320-25 7.832-26 1.138 -9 1.903 -9 4.260-11 2.043-13
 H2O             7.191-13 3.725-13 2.101-13 1.269-13 8.186 -2 4.660 -2 7.865 -4 3.572 -6
 H2O2            2.368-19 1.112-19 5.756-20 3.224-20 7.981-10 1.286 -7 3.663 -9 8.719-12
 *N              6.666 -1 6.667 -1 6.667 -1 6.668 -1 7.755-10 1.147 -5 1.347 -3 2.449 -2
 NCO             2.179-11 8.393-12 3.631-12 1.727-12 1.261-11 6.060 -9 9.308 -8 4.339 -7
 *NH             2.107 -6 1.575 -6 1.210 -6 9.516 -7 3.037-10 6.424 -7 1.346 -5 3.232 -5
 NH2             3.274-12 1.919-12 1.202-12 7.940-13 4.544-10 5.170 -8 1.221 -7 2.978 -8
 NH3             1.291-18 5.580-19 2.683-19 1.407-19 5.312 -9 8.576 -9 1.171 -9 1.937-11
 NH2OH           2.283-24 8.353-25 3.472-25 1.600-25 4.128-14 2.458-12 2.147-13 1.056-15
 *NO             1.0542-5 6.5553-6 4.3299-6 3.0029-6 8.4329-5 1.5290-2 1.8859-2 8.2335-3
 NO2             2.372-12 1.230-12 6.939-13 4.188-13 1.667 -9 3.075 -6 1.232 -6 1.075 -7
 NO3             2.817-20 1.194-20 5.612-21 2.871-21 2.727-17 3.878-12 1.362-12 4.110-14
 *N2             1.2009-4 5.8997-5 3.1897-5 1.8663-5 7.4004-1 6.7996-1 5.7665-1 5.4647-1
 NCN             3.421-11 1.405-11 6.401-12 3.174-12 7.462-19 2.026-14 2.280-11 3.815 -9
 N2H2            1.197-17 5.148-18 2.457-18 1.275-18 9.916-15 2.174-12 7.597-12 2.535-12
 N2O             1.388-11 6.076-12 2.938-12 1.541-12 4.610 -9 8.067 -7 9.882 -7 4.601 -7
 N2O3            1.410-23 4.273-24 1.496-24 5.893-25 2.806-19 5.795-14 2.359-14 8.109-16
 N3              2.523-11 1.129-11 5.523-12 2.911-12 1.227-15 8.114-12 5.818-10 8.349 -9
 N3H             6.654-17 2.347-17 9.356-18 4.122-18 7.321-16 4.604-13 4.936-12 8.522-12
 *O              1.7725-1 1.7725-1 1.7725-1 1.7725-1 3.4814-6 1.7875-2 1.2724-1 1.5738-1
 *OH             6.0776-7 4.3153-7 3.1809-7 2.4163-7 2.2344-4 2.3078-2 1.0854-2 9.6653-4
 *O2             2.8952-7 2.0082-7 1.4519-7 1.0850-7 2.7102-5 2.4956-2 7.3166-3 5.0562-4
 O3              2.321-13 1.674-13 1.264-13 9.900-14 8.348-15 5.303 -9 5.411 -9 3.658-10

  * THERMODYNAMIC PROPERTIES FITTED TO 20000.K









               THERMODYNAMIC EQUILIBRIUM PROPERTIES AT ASSIGNED

                           TEMPERATURE AND PRESSURE

 CASE =                

             REACTANT                       MOLES         ENERGY      TEMP
                                                         KJ/KG-MOL      K
 FUEL        C6H6                         1.0000000     83032.119    300.000
 OXIDANT     O2                           7.5000000        54.358    300.000
 OXIDANT     N2                          28.2143000        53.881    300.000

 O/F=   11.99177  %FUEL=  7.697178  R,EQ.RATIO= 1.100000  PHI,EQ.RATIO= 1.100000

 THERMODYNAMIC PROPERTIES

 P, BAR            1.0000   1.0000   1.0000   1.0000   1.0000   1.0000   1.0000   1.0000
 T, K             6000.00  7000.00  8000.00  9000.00 10000.00 11000.00 12000.00 13000.00
 RHO, KG/CU M    4.1171-2 2.8103-2 2.0840-2 1.7810-2 1.5907-2 1.4435-2 1.3225-2 1.2205-2
 H, KJ/KG         14695.5  29093.4  42279.8  47294.7  49989.1  52251.6  54425.7  56581.7
 U, KJ/KG         12266.6  25535.1  37481.4  41680.0  43702.6  45323.9  46864.2  48388.5
 G, KJ/KG        -63936.1 -78044.7 -94374.1-111804.5-129634.5-147707.8-165982.2-184437.0
 S, KJ/(KG)(K)    13.1053  15.3054  17.0817  17.6777  17.9624  18.1781  18.3673  18.5399

 M, (1/n)          20.539   16.356   13.862   13.328   13.226   13.202   13.195   13.193
 (dLV/dLP)t      -1.04526 -1.10004 -1.04184 -1.00997 -1.00265 -1.00087 -1.00034 -1.00015
 (dLV/dLT)p        1.8997   2.7588   1.6434   1.1372   1.0330   1.0098   1.0035   1.0015
 Cp, KJ/(KG)(K)    8.8934  17.5721   7.9410   3.2580   2.3705   2.1975   2.1600   2.1546
 GAMMAs            1.1351   1.1365   1.1935   1.3117   1.3895   1.4112   1.4153   1.4149
 SON VEL,M/SEC     1660.4   2011.0   2393.1   2713.8   2955.6   3126.7   3271.4   3404.7

 MOLE FRACTIONS

 *C              6.5005-3 5.2357-2 7.5425-2 7.7634-2 7.7895-2 7.7952-2 7.7971-2 7.7978-2
 *CH             1.8571-6 4.2854-6 2.4034-6 1.2824-6 7.6871-7 5.0023-7 3.4527-7 2.4906-7
 CH2             5.051-10 2.481-10 4.364-11 1.034-11 3.327-12 1.314-12 6.022-13 3.091-13
 CH3             8.887-14 9.151-15 5.041-16 5.318-17 9.211-18 2.208-18 6.699-19 2.431-19
 *CN             1.0834-3 2.6772-3 1.0343-3 3.1156-4 1.1134-4 4.7230-5 2.2953-5 1.2405-5
 CNN             1.627 -8 4.772 -8 1.343 -8 2.538 -9 5.874-10 1.702-10 5.916-11 2.373-11
 *CO             1.1383-1 4.1610-2 5.4673-3 8.4107-4 1.8481-4 5.3499-5 1.9123-5 8.0638-6
 *CO2            1.304 -5 1.226 -6 5.570 -8 3.713 -9 4.276-10 7.412-11 1.745-11 5.196-12
 COOH            5.264-11 3.290-12 1.086-13 6.041-15 6.025-16 9.106-17 1.872-17 4.873-18
 *C2             2.3662-6 2.6318-5 1.4546-5 5.5100-6 2.4378-6 1.2457-6 7.1039-7 4.4034-7
 C2H             5.714 -9 1.242 -8 2.013 -9 3.185-10 7.134-11 2.086-11 7.448-12 3.096-12
 C2H2,acetylene  2.009-12 7.335-13 3.206-14 2.040-15 2.289-16 3.866-17 8.827-18 2.535-18
 C2H2,vinylidene 1.657-13 8.970-14 5.119-15 3.918-16 5.008-17 9.273-18 2.259-18 6.783-19
 CH2CO,ketene    4.095-15 3.331-16 4.339-18 1.026-19 5.172-21 4.489-22 5.826-23 1.028-23
 CCN             2.717 -9 1.888 -8 4.702 -9 7.697-10 1.637-10 4.483-11 1.497-11 5.833-12
 CNC             2.523 -8 1.248 -7 2.403 -8 3.215 -9 5.812-10 1.392-10 4.156-11 1.471-11
 OCCN            1.654 -9 1.119 -9 4.565-11 1.777-12 1.204-13 1.295-14 1.984-15 3.994-16
 C2N2            1.673 -9 2.147 -9 9.939-11 3.617-12 2.216-13 2.174-14 3.080-15 5.802-16
 C2O             2.580 -7 3.358 -7 3.473 -8 3.448 -9 5.227-10 1.108-10 3.026-11 1.002-11
 *C3             1.385 -9 1.592 -8 2.770 -9 3.347-10 5.853-11 1.398-11 4.221-12 1.522-12
 C3O2            2.167-13 5.324-14 4.466-16 4.725-18 1.176-19 5.679-21 4.507-22 5.237-23
 *C4             3.293-14 7.448-13 6.373-14 3.394-15 2.998-16 4.073-17 7.670-18 1.854-18
 *C5             1.682-17 3.939-16 1.031-17 1.677-19 5.587-21 3.391-22 3.245-23 4.404-24
 *H              1.2113-1 9.6612-2 8.1921-2 7.8780-2 7.8186-2 7.8049-2 7.8010-2 7.7997-2
 HCN             1.148 -6 4.776 -7 4.830 -8 5.562 -9 9.363-10 2.140-10 6.176-11 2.135-11
 HCO             2.226 -7 5.203 -8 4.906 -9 6.356-10 1.239-10 3.235-11 1.049-11 4.015-12
 HCCN            8.861-13 1.543-12 1.375-13 1.111-14 1.382-15 2.457-16 5.745-17 1.659-17
 HCCO            1.838-11 6.849-12 2.773-13 1.447-14 1.340-15 1.901-16 3.711-17 9.243-18
 HNC             6.563 -7 3.200 -7 3.630 -8 4.558 -9 8.204-10 1.977-10 5.953-11 2.130-11
 HNCO            3.526-10 3.702-11 1.244-12 5.872-14 4.846-15 6.164-16 1.088-16 2.473-17
 HNO             2.460 -8 5.233 -9 1.002 -9 2.386-10 7.382-11 2.792-11 1.230-11 6.094-12
 HNO2            2.068-12 1.311-13 9.447-15 1.013-15 1.656-16 3.705-17 1.049-17 3.562-18
 HO2             1.227 -9 1.454-10 2.590-11 6.928-12 2.485-12 1.076-12 5.342-13 2.941-13
 *H2             5.4883-5 9.2322-6 2.4509-6 1.0441-6 5.5205-7 3.2946-7 2.1364-7 1.4729-7
 HCHO,formaldehy 3.012-12 1.929-13 6.950-15 4.670-16 5.527-17 9.656-18 2.246-18 6.497-19
 HCOOH           3.317-15 5.551-17 6.860-19 1.945-20 1.159-21 1.155-22 1.681-23 3.265-24
 H2O             6.228 -8 2.685 -9 2.405-10 4.264-11 1.124-11 3.808-12 1.545-12 7.191-13
 H2O2            8.632-14 2.762-15 1.860-16 2.564-17 5.556-18 1.605-18 5.700-19 2.368-19
 *N              1.5716-1 4.3462-1 6.1152-1 6.5514-1 6.6378-1 6.6582-1 6.6641-1 6.6662-1
 NCO             9.938 -7 5.310 -7 6.031 -8 6.726 -9 1.080 -9 2.360-10 6.541-11 2.179-11
 *NH             4.5897-5 3.5961-5 1.9546-5 1.0795-5 6.5085-6 4.2338-6 2.9201-6 2.1069-6
 NH2             7.900 -9 1.567 -9 3.059-10 8.353-11 2.948-11 1.249-11 6.067-12 3.274-12
 NH3             7.338-13 3.045-14 1.852-15 2.235-16 4.208-17 1.072-17 3.417-18 1.291-18
 *NO             3.7341-3 1.6894-3 5.6412-4 1.8892-4 7.5145-5 3.4879-5 1.8283-5 1.0542-5
 NO2             1.496 -8 3.318 -9 6.208-10 1.299-10 3.586-11 1.238-11 5.073-12 2.372-12
 NO3             2.394-15 3.082-16 3.527-17 4.805-18 9.328-19 2.390-19 7.562-20 2.817-20
 *N2             4.3811-1 1.9389-1 4.3798-2 9.0295-3 2.2957-3 7.2613-4 2.7476-4 1.2009-4
 NCN             1.005 -7 2.009 -7 4.235 -8 6.393 -9 1.235 -9 3.085-10 9.472-11 3.421-11
 N2H2            7.771-13 1.249-13 1.357-14 1.913-15 3.786-16 9.853-17 3.164-17 1.197-17
 N2O             2.050 -7 6.737 -8 1.157 -8 1.882 -9 3.985-10 1.083-10 3.588-11 1.388-11
 N3              3.811 -8 4.259 -8 1.252 -8 2.569 -9 6.147-10 1.806-10 6.302-11 2.523-11
 N3H             8.167-12 2.521-12 2.847-13 3.044-14 4.438-15 8.748-16 2.194-16 6.654-17
 *O              1.5813-1 1.7641-1 1.8022-1 1.7805-1 1.7746-1 1.7731-1 1.7727-1 1.7725-1
 *OH             1.4247-4 3.3546-5 1.0645-5 4.5974-6 2.4016-6 1.4092-6 8.9749-7 6.0776-7
 *O2             6.4575-5 1.8323-5 6.2951-6 2.5816-6 1.2761-6 7.1595-7 4.3999-7 2.8952-7
 O3              4.328-11 1.325-11 4.607-12 1.876-12 9.385-13 5.383-13 3.406-13 2.321-13

  * THERMODYNAMIC PROPERTIES FITTED TO 20000.K









               THERMODYNAMIC EQUILIBRIUM PROPERTIES AT ASSIGNED

                           TEMPERATURE AND PRESSURE

 CASE =                

             REACTANT                       MOLES         ENERGY      TEMP
                                                         KJ/KG-MOL      K
 FUEL        C6H6                         1.0000000     83032.119    300.000
 OXIDANT     O2                           7.5000000        54.358    300.000
 OXIDANT     N2                          28.2143000        53.881    300.000

 O/F=   11.99177  %FUEL=  7.697178  R,EQ.RATIO= 1.100000  PHI,EQ.RATIO= 1.100000

 THERMODYNAMIC PROPERTIES

 P, BAR            1.0000   1.0000   1.0000   1.0000   1.0000   1.0000   1.0000   1.0000
 T, K            14000.00 15000.00 16000.00  2000.00  3000.00  4000.00  5000.00  6000.00
 RHO, KG/CU M    1.1333-2 1.0577-2 9.9155-3 1.7608-1 1.0907-1 6.9803-2 5.3569-2 4.1171-2
 H, KJ/KG         58738.2  60902.1  63076.3  -531.86  2323.89  6938.73  9511.70  14695.5
 U, KJ/KG         49914.1  51447.4  52991.1 -1099.78  1407.03  5506.14  7644.93  12266.6
 G, KJ/KG       -203057.7-221832.9-240752.7 -18837.4 -28462.5 -39465.5 -51369.1 -63936.1
 S, KJ/(KG)(K)    18.6997  18.8490  18.9893   9.1528  10.2621  11.6011  12.1762  13.1053

 M, (1/n)          13.192   13.191   13.191   29.281   27.205   23.215   22.270   20.539
 (dLV/dLP)t      -1.00008 -1.00004 -1.00003 -1.00013 -1.02356 -1.02318 -1.01011 -1.04526
 (dLV/dLT)p        1.0007   1.0004   1.0002   1.0046   1.4914   1.3277   1.1851   1.8997
 Cp, KJ/(KG)(K)    2.1595   2.1688   2.1799   1.4366   4.6365   3.1733   2.9131   8.8934
 GAMMAs            1.4128   1.4100   1.4070   1.2490   1.1403   1.2133   1.2046   1.1351
 SON VEL,M/SEC     3530.8   3651.2   3766.9    842.2   1022.5   1318.4   1499.6   1660.4

 MOLE FRACTIONS

 *C              7.798 -2 7.798 -2 7.799 -2 6.921-18 1.376-11 1.450 -7 8.762 -5 6.500 -3
 *CH             1.858 -7 1.424 -7 1.115 -7 2.505-18 7.091-13 1.365 -9 1.113 -7 1.857 -6
 CH2             1.733-13 1.042-13 6.628-14 3.498-17 2.394-13 3.321-11 2.029-10 5.051-10
 CH3             1.014-19 4.724-20 2.407-20 9.692-16 8.184-14 6.204-13 2.515-13 8.887-14
 CH2OH           1.830-25 6.440-26 2.557-26 1.555-16 1.442-14 1.099-14 4.171-16 2.599-17
 CH3O            4.250-25 1.624-25 6.962-26 1.511-17 3.410-15 4.397-15 2.404-16 1.975-17
 CH4             4.200-25 1.974-25 1.035-25 2.029-15 3.875-15 2.522-15 1.015-16 7.533-18
 CH3OH           3.574-32 1.040-32 3.510-33 3.969-17 1.525-16 1.213-17 4.629-20 5.505-22
 *CN             7.290 -6 4.582 -6 3.040 -6 1.219-13 7.798-10 4.457 -7 4.901 -5 1.083 -3
 CNN             1.067-11 5.258-12 2.793-12 5.750-22 2.260-16 9.677-13 3.612-10 1.627 -8
 *CO             3.8793-6 2.0756-6 1.2108-6 3.5014-2 1.0890-1 1.3494-1 1.3141-1 1.1383-1
 *CO2            1.859-12 7.687-13 3.573-13 1.381 -1 5.195 -2 2.315 -3 1.198 -4 1.304 -5
 COOH            1.525-18 5.527-19 2.257-19 4.111 -9 9.382 -8 1.555 -8 6.551-10 5.264-11
 *C2             2.910 -7 2.022 -7 1.461 -7 1.193-25 2.304-18 5.551-13 5.059 -9 2.366 -6
 C2H             1.449-12 7.453-13 4.134-13 8.233-23 1.462-17 1.682-13 9.282-11 5.714 -9
 C2H2,acetylene  8.705-19 3.441-19 1.524-19 1.809-19 6.089-17 1.513-14 3.228-13 2.009-12
 C2H2,vinylidene 2.398-19 9.651-20 4.312-20 1.669-23 1.921-19 2.600-16 1.458-14 1.657-13
 CH2CO,ketene    2.308-24 6.269-25 1.986-25 2.076-17 7.638-16 6.024-15 5.998-15 4.095-15
 CCN             2.565-12 1.243-12 6.513-13 4.082-28 4.903-21 8.920-16 7.037-12 2.717 -9
 CNC             5.956-12 2.684-12 1.320-12 4.244-25 4.811-19 2.695-14 1.049-10 2.523 -8
 OCCN            9.968-17 2.953-17 1.006-17 3.647-18 8.765-15 2.227-12 1.296-10 1.654 -9
 C2N2            1.368-16 3.860-17 1.260-17 6.965-20 4.732-17 6.610-14 3.037-11 1.673 -9
 C2O             3.864-12 1.679-12 8.044-13 1.591-17 2.033-13 1.289-10 1.283 -8 2.580 -7
 *C3             6.296-13 2.899-13 1.455-13 3.266-31 6.270-24 1.070-17 7.308-13 1.385 -9
 C3O2            8.200-24 1.627-24 3.912-25 1.039-19 2.289-17 1.447-15 3.224-14 2.167-13
 *C4             5.445-19 1.864-19 7.220-20 0.000  0 5.691-33 7.358-25 1.643-18 3.293-14
 *H              7.7992-2 7.7989-2 7.7989-2 1.0964-4 1.8170-2 1.1452-1 1.2985-1 1.2113-1
 HCN             8.504-12 3.794-12 1.856-12 2.186-10 5.574 -9 9.697 -8 4.834 -7 1.148 -6
 HCO             1.750-12 8.454-13 4.441-13 1.352 -9 1.509 -7 5.427 -7 3.758 -7 2.226 -7
 HCCN            5.653-18 2.198-18 9.509-19 1.917-27 9.124-22 1.660-17 1.259-14 8.861-13
 HCCO            2.785-18 9.767-19 3.870-19 1.200-18 2.497-15 3.012-13 4.076-12 1.838-11
 HNC             8.731-12 3.989-12 1.990-12 1.103-11 9.706-10 3.096 -8 2.199 -7 6.563 -7
 HNCO            6.856-18 2.229-18 8.243-19 1.133 -9 5.568 -9 4.139 -9 1.169 -9 3.526-10
 HNO             3.314-12 1.941-12 1.208-12 1.974 -9 8.140 -7 8.130 -7 1.241 -7 2.460 -8
 HNO2            1.396-18 6.138-19 2.964-19 1.765-10 6.125 -8 5.142 -9 6.463-11 2.068-12
 HNO3            3.412-26 1.248-26 5.122-27 5.778-16 2.301-12 6.560-14 1.645-16 1.563-18
 HO2             1.755-13 1.118-13 7.501-14 3.223 -9 6.004 -6 1.216 -6 2.518 -8 1.227 -9
 *H2             1.0641-7 7.9732-8 6.1507-8 4.5308-3 1.3199-2 5.1475-3 4.0651-4 5.4883-5
 HCHO,formaldehy 2.229-19 8.759-20 3.841-20 6.561-11 5.918-10 3.010-10 2.450-11 3.012-12
 HCOOH           7.955-25 2.320-25 7.832-26 1.138 -9 1.903 -9 4.260-11 2.043-13 3.317-15
 H2O             3.725-13 2.101-13 1.269-13 8.186 -2 4.660 -2 7.865 -4 3.572 -6 6.228 -8
 H2O2            1.112-19 5.756-20 3.224-20 7.981-10 1.286 -7 3.663 -9 8.719-12 8.632-14
 *N              6.667 -1 6.667 -1 6.668 -1 7.755-10 1.147 -5 1.347 -3 2.449 -2 1.572 -1
 NCO             8.393-12 3.631-12 1.727-12 1.261-11 6.060 -9 9.308 -8 4.339 -7 9.938 -7
 *NH             1.575 -6 1.210 -6 9.516 -7 3.037-10 6.424 -7 1.346 -5 3.232 -5 4.590 -5
 NH2             1.919-12 1.202-12 7.940-13 4.544-10 5.170 -8 1.221 -7 2.978 -8 7.900 -9
 NH3             5.580-19 2.683-19 1.407-19 5.312 -9 8.576 -9 1.171 -9 1.937-11 7.338-13
 NH2OH           8.353-25 3.472-25 1.600-25 4.128-14 2.458-12 2.147-13 1.056-15 1.561-17
 *NO             6.5553-6 4.3299-6 3.0029-6 8.4329-5 1.5290-2 1.8859-2 8.2335-3 3.7341-3
 NO2             1.230-12 6.939-13 4.188-13 1.667 -9 3.075 -6 1.232 -6 1.075 -7 1.496 -8
 NO3             1.194-20 5.612-21 2.871-21 2.727-17 3.878-12 1.362-12 4.110-14 2.394-15
 *N2             5.8997-5 3.1897-5 1.8663-5 7.4004-1 6.7996-1 5.7665-1 5.4647-1 4.3811-1
 NCN             1.405-11 6.401-12 3.174-12 7.462-19 2.026-14 2.280-11 3.815 -9 1.005 -7
 N2H2            5.148-18 2.457-18 1.275-18 9.916-15 2.174-12 7.597-12 2.535-12 7.771-13
 N2O             6.076-12 2.938-12 1.541-12 4.610 -9 8.067 -7 9.882 -7 4.601 -7 2.050 -7
 N2O3            4.273-24 1.496-24 5.893-25 2.806-19 5.795-14 2.359-14 8.109-16 4.767-17
 N3              1.129-11 5.523-12 2.911-12 1.227-15 8.114-12 5.818-10 8.349 -9 3.811 -8
 N3H             2.347-17 9.356-18 4.122-18 7.321-16 4.604-13 4.936-12 8.522-12 8.167-12
 *O              1.7725-1 1.7725-1 1.7725-1 3.4814-6 1.7875-2 1.2724-1 1.5738-1 1.5813-1
 *OH             4.3153-7 3.1809-7 2.4163-7 2.2344-4 2.3078-2 1.0854-2 9.6653-4 1.4247-4
 *O2             2.0082-7 1.4519-7 1.0850-7 2.7102-5 2.4956-2 7.3166-3 5.0562-4 6.4575-5
 O3              1.674-13 1.264-13 9.900-14 8.348-15 5.303 -9 5.411 -9 3.658-10 4.328-11

  * THERMODYNAMIC PROPERTIES FITTED TO 20000.K









               THERMODYNAMIC EQUILIBRIUM PROPERTIES AT ASSIGNED

                           TEMPERATURE AND PRESSURE

 CASE =                

             REACTANT                       MOLES         ENERGY      TEMP
                                                         KJ/KG-MOL      K
 FUEL        C6H6                         1.0000000     83032.119    300.000
 OXIDANT     O2                           7.5000000        54.358    300.000
 OXIDANT     N2                          28.2143000        53.881    300.000

 O/F=   11.99177  %FUEL=  7.697178  R,EQ.RATIO= 1.100000  PHI,EQ.RATIO= 1.100000

 THERMODYNAMIC PROPERTIES

 P, BAR            1.0000   1.0000   1.0000   1.0000   1.0000   1.0000   1.0000   1.0000
 T, K             7000.00  8000.00  9000.00 10000.00 11000.00 12000.00 13000.00 14000.00
 RHO, KG/CU M    2.8103-2 2.0840-2 1.7810-2 1.5907-2 1.4435-2 1.3225-2 1.2205-2 1.1333-2
 H, KJ/KG         29093.4  42279.8  47294.7  49989.1  52251.6  54425.7  56581.7  58738.2
 U, KJ/KG         25535.1  37481.4  41680.0  43702.6  45323.9  46864.2  48388.5  49914.1
 G, KJ/KG        -78044.7 -94374.1-111804.5-129634.5-147707.8-165982.2-184437.0-203057.7
 S, KJ/(KG)(K)    15.3054  17.0817  17.6777  17.9624  18.1781  18.3673  18.5399  18.6997

 M, (1/n)          16.356   13.862   13.328   13.226   13.202   13.195   13.193   13.192
 (dLV/dLP)t      -1.10004 -1.04184 -1.00997 -1.00265 -1.00087 -1.00034 -1.00015 -1.00008
 (dLV/dLT)p        2.7588   1.6434   1.1372   1.0330   1.0098   1.0035   1.0015   1.0007
 Cp, KJ/(KG)(K)   17.5721   7.9410   3.2580   2.3705   2.1975   2.1600   2.1546   2.1595
 GAMMAs            1.1365   1.1935   1.3117   1.3895   1.4112   1.4153   1.4149   1.4128
 SON VEL,M/SEC     2011.0   2393.1   2713.8   2955.6   3126.7   3271.4   3404.7   3530.8

 MOLE FRACTIONS

 *C              5.2357-2 7.5425-2 7.7634-2 7.7895-2 7.7952-2 7.7971-2 7.7978-2 7.7982-2
 *CH             4.2854-6 2.4034-6 1.2824-6 7.6871-7 5.0023-7 3.4527-7 2.4906-7 1.8584-7
 CH2             2.481-10 4.364-11 1.034-11 3.327-12 1.314-12 6.022-13 3.091-13 1.733-13
 CH3             9.151-15 5.041-16 5.318-17 9.211-18 2.208-18 6.699-19 2.431-19 1.014-19
 *CN             2.6772-3 1.0343-3 3.1156-4 1.1134-4 4.7230-5 2.2953-5 1.2405-5 7.2905-6
 CNN             4.772 -8 1.343 -8 2.538 -9 5.874-10 1.702-10 5.916-11 2.373-11 1.067-11
 *CO             4.1610-2 5.4673-3 8.4107-4 1.8481-4 5.3499-5 1.9123-5 8.0638-6 3.8793-6
 *CO2            1.226 -6 5.570 -8 3.713 -9 4.276-10 7.412-11 1.745-11 5.196-12 1.859-12
 COOH            3.290-12 1.086-13 6.041-15 6.025-16 9.106-17 1.872-17 4.873-18 1.525-18
 *C2             2.6318-5 1.4546-5 5.5100-6 2.4378-6 1.2457-6 7.1039-7 4.4034-7 2.9101-7
 C2H             1.242 -8 2.013 -9 3.185-10 7.134-11 2.086-11 7.448-12 3.096-12 1.449-12
 C2H2,acetylene  7.335-13 3.206-14 2.040-15 2.289-16 3.866-17 8.827-18 2.535-18 8.705-19
 C2H2,vinylidene 8.970-14 5.119-15 3.918-16 5.008-17 9.273-18 2.259-18 6.783-19 2.398-19
 CH2CO,ketene    3.331-16 4.339-18 1.026-19 5.172-21 4.489-22 5.826-23 1.028-23 2.308-24
 CCN             1.888 -8 4.702 -9 7.697-10 1.637-10 4.483-11 1.497-11 5.833-12 2.565-12
 CNC             1.248 -7 2.403 -8 3.215 -9 5.812-10 1.392-10 4.156-11 1.471-11 5.956-12
 OCCN            1.119 -9 4.565-11 1.777-12 1.204-13 1.295-14 1.984-15 3.994-16 9.968-17
 C2N2            2.147 -9 9.939-11 3.617-12 2.216-13 2.174-14 3.080-15 5.802-16 1.368-16
 C2O             3.358 -7 3.473 -8 3.448 -9 5.227-10 1.108-10 3.026-11 1.002-11 3.864-12
 *C3             1.592 -8 2.770 -9 3.347-10 5.853-11 1.398-11 4.221-12 1.522-12 6.296-13
 C3O2            5.324-14 4.466-16 4.725-18 1.176-19 5.679-21 4.507-22 5.237-23 8.200-24
 *C4             7.448-13 6.373-14 3.394-15 2.998-16 4.073-17 7.670-18 1.854-18 5.445-19
 *C5             3.939-16 1.031-17 1.677-19 5.587-21 3.391-22 3.245-23 4.404-24 7.849-25
 *H              9.6612-2 8.1921-2 7.8780-2 7.8186-2 7.8049-2 7.8010-2 7.7997-2 7.7992-2
 HCN             4.776 -7 4.830 -8 5.562 -9 9.363-10 2.140-10 6.176-11 2.135-11 8.504-12
 HCO             5.203 -8 4.906 -9 6.356-10 1.239-10 3.235-11 1.049-11 4.015-12 1.750-12
 HCCN            1.543-12 1.375-13 1.111-14 1.382-15 2.457-16 5.745-17 1.659-17 5.653-18
 HCCO            6.849-12 2.773-13 1.447-14 1.340-15 1.901-16 3.711-17 9.243-18 2.785-18
 HNC             3.200 -7 3.630 -8 4.558 -9 8.204-10 1.977-10 5.953-11 2.130-11 8.731-12
 HNCO            3.702-11 1.244-12 5.872-14 4.846-15 6.164-16 1.088-16 2.473-17 6.856-18
 HNO             5.233 -9 1.002 -9 2.386-10 7.382-11 2.792-11 1.230-11 6.094-12 3.314-12
 HNO2            1.311-13 9.447-15 1.013-15 1.656-16 3.705-17 1.049-17 3.562-18 1.396-18
 HO2             1.454-10 2.590-11 6.928-12 2.485-12 1.076-12 5.342-13 2.941-13 1.755-13
 *H2             9.2322-6 2.4509-6 1.0441-6 5.5205-7 3.2946-7 2.1364-7 1.4729-7 1.0641-7
 HCHO,formaldehy 1.929-13 6.950-15 4.670-16 5.527-17 9.656-18 2.246-18 6.497-19 2.229-19
 H2O             2.685 -9 2.405-10 4.264-11 1.124-11 3.808-12 1.545-12 7.191-13 3.725-13
 H2O2            2.762-15 1.860-16 2.564-17 5.556-18 1.605-18 5.700-19 2.368-19 1.112-19
 *N              4.3462-1 6.1152-1 6.5514-1 6.6378-1 6.6582-1 6.6641-1 6.6662-1 6.6670-1
 NCO             5.310 -7 6.031 -8 6.726 -9 1.080 -9 2.360-10 6.541-11 2.179-11 8.393-12
 *NH             3.5961-5 1.9546-5 1.0795-5 6.5085-6 4.2338-6 2.9201-6 2.1069-6 1.5746-6
 NH2             1.567 -9 3.059-10 8.353-11 2.948-11 1.249-11 6.067-12 3.274-12 1.919-12
 NH3             3.045-14 1.852-15 2.235-16 4.208-17 1.072-17 3.417-18 1.291-18 5.580-19
 *NO             1.6894-3 5.6412-4 1.8892-4 7.5145-5 3.4879-5 1.8283-5 1.0542-5 6.5553-6
 NO2             3.318 -9 6.208-10 1.299-10 3.586-11 1.238-11 5.073-12 2.372-12 1.230-12
 NO3             3.082-16 3.527-17 4.805-18 9.328-19 2.390-19 7.562-20 2.817-20 1.194-20
 *N2             1.9389-1 4.3798-2 9.0295-3 2.2957-3 7.2613-4 2.7476-4 1.2009-4 5.8997-5
 NCN             2.009 -7 4.235 -8 6.393 -9 1.235 -9 3.085-10 9.472-11 3.421-11 1.405-11
 N2H2            1.249-13 1.357-14 1.913-15 3.786-16 9.853-17 3.164-17 1.197-17 5.148-18
 N2O             6.737 -8 1.157 -8 1.882 -9 3.985-10 1.083-10 3.588-11 1.388-11 6.076-12
 N3              4.259 -8 1.252 -8 2.569 -9 6.147-10 1.806-10 6.302-11 2.523-11 1.129-11
 N3H             2.521-12 2.847-13 3.044-14 4.438-15 8.748-16 2.194-16 6.654-17 2.347-17
 *O              1.7641-1 1.8022-1 1.7805-1 1.7746-1 1.7731-1 1.7727-1 1.7725-1 1.7725-1
 *OH             3.3546-5 1.0645-5 4.5974-6 2.4016-6 1.4092-6 8.9749-7 6.0776-7 4.3153-7
 *O2             1.8323-5 6.2951-6 2.5816-6 1.2761-6 7.1595-7 4.3999-7 2.8952-7 2.0082-7
 O3              1.325-11 4.607-12 1.876-12 9.385-13 5.383-13 3.406-13 2.321-13 1.674-13

  * THERMODYNAMIC PROPERTIES FITTED TO 20000.K









               THERMODYNAMIC EQUILIBRIUM PROPERTIES AT ASSIGNED

                           TEMPERATURE AND PRESSURE

 CASE =                

             REACTANT                       MOLES         ENERGY      TEMP
                                                         KJ/KG-MOL      K
[...]
 C2O             2.580 -7 3.358 -7 3.473 -8 3.448 -9 5.227-10 1.108-10 3.026-11 1.002-11
 *C3             1.385 -9 1.592 -8 2.770 -9 3.347-10 5.853-11 1.398-11 4.221-12 1.522-12
 C3O2            2.167-13 5.324-14 4.466-16 4.725-18 1.176-19 5.679-21 4.507-22 5.237-23
 *C4             3.293-14 7.448-13 6.373-14 3.394-15 2.998-16 4.073-17 7.670-18 1.854-18
 *C5             1.682-17 3.939-16 1.031-17 1.677-19 5.587-21 3.391-22 3.245-23 4.404-24
 *H              1.2113-1 9.6612-2 8.1921-2 7.8780-2 7.8186-2 7.8049-2 7.8010-2 7.7997-2
 HCN             1.148 -6 4.776 -7 4.830 -8 5.562 -9 9.363-10 2.140-10 6.176-11 2.135-11
 HCO             2.226 -7 5.203 -8 4.906 -9 6.356-10 1.239-10 3.235-11 1.049-11 4.015-12
 HCCN            8.861-13 1.543-12 1.375-13 1.111-14 1.382-15 2.457-16 5.745-17 1.659-17
 HCCO            1.838-11 6.849-12 2.773-13 1.447-14 1.340-15 1.901-16 3.711-17 9.243-18
 HNC             6.563 -7 3.200 -7 3.630 -8 4.558 -9 8.204-10 1.977-10 5.953-11 2.130-11
 HNCO            3.526-10 3.702-11 1.244-12 5.872-14 4.846-15 6.164-16 1.088-16 2.473-17
 HNO             2.460 -8 5.233 -9 1.002 -9 2.386-10 7.382-11 2.792-11 1.230-11 6.094-12
 HNO2            2.068-12 1.311-13 9.447-15 1.013-15 1.656-16 3.705-17 1.049-17 3.562-18
 HO2             1.227 -9 1.454-10 2.590-11 6.928-12 2.485-12 1.076-12 5.342-13 2.941-13
 *H2             5.4883-5 9.2322-6 2.4509-6 1.0441-6 5.5205-7 3.2946-7 2.1364-7 1.4729-7
 HCHO,formaldehy 3.012-12 1.929-13 6.950-15 4.670-16 5.527-17 9.656-18 2.246-18 6.497-19
 HCOOH           3.317-15 5.551-17 6.860-19 1.945-20 1.159-21 1.155-22 1.681-23 3.265-24
 H2O             6.228 -8 2.685 -9 2.405-10 4.264-11 1.124-11 3.808-12 1.545-12 7.191-13
 H2O2            8.632-14 2.762-15 1.860-16 2.564-17 5.556-18 1.605-18 5.700-19 2.368-19
 *N              1.5716-1 4.3462-1 6.1152-1 6.5514-1 6.6378-1 6.6582-1 6.6641-1 6.6662-1
 NCO             9.938 -7 5.310 -7 6.031 -8 6.726 -9 1.080 -9 2.360-10 6.541-11 2.179-11
 *NH             4.5897-5 3.5961-5 1.9546-5 1.0795-5 6.5085-6 4.2338-6 2.9201-6 2.1069-6
 NH2             7.900 -9 1.567 -9 3.059-10 8.353-11 2.948-11 1.249-11 6.067-12 3.274-12
 NH3             7.338-13 3.045-14 1.852-15 2.235-16 4.208-17 1.072-17 3.417-18 1.291-18
 *NO             3.7341-3 1.6894-3 5.6412-4 1.8892-4 7.5145-5 3.4879-5 1.8283-5 1.0542-5
 NO2             1.496 -8 3.318 -9 6.208-10 1.299-10 3.586-11 1.238-11 5.073-12 2.372-12
 NO3             2.394-15 3.082-16 3.527-17 4.805-18 9.328-19 2.390-19 7.562-20 2.817-20
 *N2             4.3811-1 1.9389-1 4.3798-2 9.0295-3 2.2957-3 7.2613-4 2.7476-4 1.2009-4
 NCN             1.005 -7 2.009 -7 4.235 -8 6.393 -9 1.235 -9 3.085-10 9.472-11 3.421-11
 N2H2            7.771-13 1.249-13 1.357-14 1.913-15 3.786-16 9.853-17 3.164-17 1.197-17
 N2O             2.050 -7 6.737 -8 1.157 -8 1.882 -9 3.985-10 1.083-10 3.588-11 1.388-11
 N3              3.811 -8 4.259 -8 1.252 -8 2.569 -9 6.147-10 1.806-10 6.302-11 2.523-11
 N3H             8.167-12 2.521-12 2.847-13 3.044-14 4.438-15 8.748-16 2.194-16 6.654-17
 *O              1.5813-1 1.7641-1 1.8022-1 1.7805-1 1.7746-1 1.7731-1 1.7727-1 1.7725-1
 *OH             1.4247-4 3.3546-5 1.0645-5 4.5974-6 2.4016-6 1.4092-6 8.9749-7 6.0776-7
 *O2             6.4575-5 1.8323-5 6.2951-6 2.5816-6 1.2761-6 7.1595-7 4.3999-7 2.8952-7
 O3              4.328-11 1.325-11 4.607-12 1.876-12 9.385-13 5.383-13 3.406-13 2.321-13

  * THERMODYNAMIC PROPERTIES FITTED TO 20000.K









               THERMODYNAMIC EQUILIBRIUM PROPERTIES AT ASSIGNED

                           TEMPERATURE AND PRESSURE

 CASE =                

             REACTANT                       MOLES         ENERGY      TEMP
                                                         KJ/KG-MOL      K
 FUEL        C6H6                         1.0000000     83032.119    300.000
 OXIDANT     O2                           7.5000000        54.358    300.000
 OXIDANT     N2                          28.2143000        53.881    300.000

 O/F=   11.99177  %FUEL=  7.697178  R,EQ.RATIO= 1.100000  PHI,EQ.RATIO= 1.100000

 THERMODYNAMIC PROPERTIES

 P, BAR            1.0000   1.0000   1.0000   1.0000   1.0000   1.0000   1.0000   1.0000
 T, K            14000.00 15000.00 16000.00  2000.00  3000.00  4000.00  5000.00  6000.00
 RHO, KG/CU M    1.1333-2 1.0577-2 9.9155-3 1.7608-1 1.0907-1 6.9803-2 5.3569-2 4.1171-2
 H, KJ/KG         58738.2  60902.1  63076.3  -531.86  2323.89  6938.73  9511.70  14695.5
 U, KJ/KG         49914.1  51447.4  52991.1 -1099.78  1407.03  5506.14  7644.93  12266.6
 G, KJ/KG       -203057.7-221832.9-240752.7 -18837.4 -28462.5 -39465.5 -51369.1 -63936.1
 S, KJ/(KG)(K)    18.6997  18.8490  18.9893   9.1528  10.2621  11.6011  12.1762  13.1053

 M, (1/n)          13.192   13.191   13.191   29.281   27.205   23.215   22.270   20.539
 (dLV/dLP)t      -1.00008 -1.00004 -1.00003 -1.00013 -1.02356 -1.02318 -1.01011 -1.04526
 (dLV/dLT)p        1.0007   1.0004   1.0002   1.0046   1.4914   1.3277   1.1851   1.8997
 Cp, KJ/(KG)(K)    2.1595   2.1688   2.1799   1.4366   4.6365   3.1733   2.9131   8.8934
 GAMMAs            1.4128   1.4100   1.4070   1.2490   1.1403   1.2133   1.2046   1.1351
 SON VEL,M/SEC     3530.8   3651.2   3766.9    842.2   1022.5   1318.4   1499.6   1660.4

 MOLE FRACTIONS

 *C              7.798 -2 7.798 -2 7.799 -2 6.921-18 1.376-11 1.450 -7 8.762 -5 6.500 -3
 *CH             1.858 -7 1.424 -7 1.115 -7 2.505-18 7.091-13 1.365 -9 1.113 -7 1.857 -6
 CH2             1.733-13 1.042-13 6.628-14 3.498-17 2.394-13 3.321-11 2.029-10 5.051-10
 CH3             1.014-19 4.724-20 2.407-20 9.692-16 8.184-14 6.204-13 2.515-13 8.887-14
 CH2OH           1.830-25 6.440-26 2.557-26 1.555-16 1.442-14 1.099-14 4.171-16 2.599-17
 CH3O            4.250-25 1.624-25 6.962-26 1.511-17 3.410-15 4.397-15 2.404-16 1.975-17
 CH4             4.200-25 1.974-25 1.035-25 2.029-15 3.875-15 2.522-15 1.015-16 7.533-18
 CH3OH           3.574-32 1.040-32 3.510-33 3.969-17 1.525-16 1.213-17 4.629-20 5.505-22
 *CN             7.290 -6 4.582 -6 3.040 -6 1.219-13 7.798-10 4.457 -7 4.901 -5 1.083 -3
 CNN             1.067-11 5.258-12 2.793-12 5.750-22 2.260-16 9.677-13 3.612-10 1.627 -8
 *CO             3.8793-6 2.0756-6 1.2108-6 3.5014-2 1.0890-1 1.3494-1 1.3141-1 1.1383-1
 *CO2            1.859-12 7.687-13 3.573-13 1.381 -1 5.195 -2 2.315 -3 1.198 -4 1.304 -5
 COOH            1.525-18 5.527-19 2.257-19 4.111 -9 9.382 -8 1.555 -8 6.551-10 5.264-11
 *C2             2.910 -7 2.022 -7 1.461 -7 1.193-25 2.304-18 5.551-13 5.059 -9 2.366 -6
 C2H             1.449-12 7.453-13 4.134-13 8.233-23 1.462-17 1.682-13 9.282-11 5.714 -9
 C2H2,acetylene  8.705-19 3.441-19 1.524-19 1.809-19 6.089-17 1.513-14 3.228-13 2.009-12
 C2H2,vinylidene 2.398-19 9.651-20 4.312-20 1.669-23 1.921-19 2.600-16 1.458-14 1.657-13
 CH2CO,ketene    2.308-24 6.269-25 1.986-25 2.076-17 7.638-16 6.024-15 5.998-15 4.095-15
 CCN             2.565-12 1.243-12 6.513-13 4.082-28 4.903-21 8.920-16 7.037-12 2.717 -9
 CNC             5.956-12 2.684-12 1.320-12 4.244-25 4.811-19 2.695-14 1.049-10 2.523 -8
 OCCN            9.968-17 2.953-17 1.006-17 3.647-18 8.765-15 2.227-12 1.296-10 1.654 -9
 C2N2            1.368-16 3.860-17 1.260-17 6.965-20 4.732-17 6.610-14 3.037-11 1.673 -9
 C2O             3.864-12 1.679-12 8.044-13 1.591-17 2.033-13 1.289-10 1.283 -8 2.580 -7
 *C3             6.296-13 2.899-13 1.455-13 3.266-31 6.270-24 1.070-17 7.308-13 1.385 -9
 C3O2            8.200-24 1.627-24 3.912-25 1.039-19 2.289-17 1.447-15 3.224-14 2.167-13
 *C4             5.445-19 1.864-19 7.220-20 0.000  0 5.691-33 7.358-25 1.643-18 3.293-14
 *H              7.7992-2 7.7989-2 7.7989-2 1.0964-4 1.8170-2 1.1452-1 1.2985-1 1.2113-1
 HCN             8.504-12 3.794-12 1.856-12 2.186-10 5.574 -9 9.697 -8 4.834 -7 1.148 -6
 HCO             1.750-12 8.454-13 4.441-13 1.352 -9 1.509 -7 5.427 -7 3.758 -7 2.226 -7
 HCCN            5.653-18 2.198-18 9.509-19 1.917-27 9.124-22 1.660-17 1.259-14 8.861-13
 HCCO            2.785-18 9.767-19 3.870-19 1.200-18 2.497-15 3.012-13 4.076-12 1.838-11
 HNC             8.731-12 3.989-12 1.990-12 1.103-11 9.706-10 3.096 -8 2.199 -7 6.563 -7
 HNCO            6.856-18 2.229-18 8.243-19 1.133 -9 5.568 -9 4.139 -9 1.169 -9 3.526-10
 HNO             3.314-12 1.941-12 1.208-12 1.974 -9 8.140 -7 8.130 -7 1.241 -7 2.460 -8
 HNO2            1.396-18 6.138-19 2.964-19 1.765-10 6.125 -8 5.142 -9 6.463-11 2.068-12
 HNO3            3.412-26 1.248-26 5.122-27 5.778-16 2.301-12 6.560-14 1.645-16 1.563-18
 HO2             1.755-13 1.118-13 7.501-14 3.223 -9 6.004 -6 1.216 -6 2.518 -8 1.227 -9
 *H2             1.0641-7 7.9732-8 6.1507-8 4.5308-3 1.3199-2 5.1475-3 4.0651-4 5.4883-5
 HCHO,formaldehy 2.229-19 8.759-20 3.841-20 6.561-11 5.918-10 3.010-10 2.450-11 3.012-12
 HCOOH           7.955-25 2.320-25 7.832-26 1.138 -9 1.903 -9 4.260-11 2.043-13 3.317-15
 H2O             3.725-13 2.101-13 1.269-13 8.186 -2 4.660 -2 7.865 -4 3.572 -6 6.228 -8
 H2O2            1.112-19 5.756-20 3.224-20 7.981-10 1.286 -7 3.663 -9 8.719-12 8.632-14
 *N              6.667 -1 6.667 -1 6.668 -1 7.755-10 1.147 -5 1.347 -3 2.449 -2 1.572 -1
 NCO             8.393-12 3.631-12 1.727-12 1.261-11 6.060 -9 9.308 -8 4.339 -7 9.938 -7
 *NH             1.575 -6 1.210 -6 9.516 -7 3.037-10 6.424 -7 1.346 -5 3.232 -5 4.590 -5
 NH2             1.919-12 1.202-12 7.940-13 4.544-10 5.170 -8 1.221 -7 2.978 -8 7.900 -9
 NH3             5.580-19 2.683-19 1.407-19 5.312 -9 8.576 -9 1.171 -9 1.937-11 7.338-13
 NH2OH           8.353-25 3.472-25 1.600-25 4.128-14 2.458-12 2.147-13 1.056-15 1.561-17
 *NO             6.5553-6 4.3299-6 3.0029-6 8.4329-5 1.5290-2 1.8859-2 8.2335-3 3.7341-3
 NO2             1.230-12 6.939-13 4.188-13 1.667 -9 3.075 -6 1.232 -6 1.075 -7 1.496 -8
 NO3             1.194-20 5.612-21 2.871-21 2.727-17 3.878-12 1.362-12 4.110-14 2.394-15
 *N2             5.8997-5 3.1897-5 1.8663-5 7.4004-1 6.7996-1 5.7665-1 5.4647-1 4.3811-1
 NCN             1.405-11 6.401-12 3.174-12 7.462-19 2.026-14 2.280-11 3.815 -9 1.005 -7
 N2H2            5.148-18 2.457-18 1.275-18 9.916-15 2.174-12 7.597-12 2.535-12 7.771-13
 N2O             6.076-12 2.938-12 1.541-12 4.610 -9 8.067 -7 9.882 -7 4.601 -7 2.050 -7
 N2O3            4.273-24 1.496-24 5.893-25 2.806-19 5.795-14 2.359-14 8.109-16 4.767-17
 N3              1.129-11 5.523-12 2.911-12 1.227-15 8.114-12 5.818-10 8.349 -9 3.811 -8
 N3H             2.347-17 9.356-18 4.122-18 7.321-16 4.604-13 4.936-12 8.522-12 8.167-12
 *O              1.7725-1 1.7725-1 1.7725-1 3.4814-6 1.7875-2 1.2724-1 1.5738-1 1.5813-1
 *OH             4.3153-7 3.1809-7 2.4163-7 2.2344-4 2.3078-2 1.0854-2 9.6653-4 1.4247-4
 *O2             2.0082-7 1.4519-7 1.0850-7 2.7102-5 2.4956-2 7.3166-3 5.0562-4 6.4575-5
 O3              1.674-13 1.264-13 9.900-14 8.348-15 5.303 -9 5.411 -9 3.658-10 4.328-11

  * THERMODYNAMIC PROPERTIES FITTED TO 20000.K









               THERMODYNAMIC EQUILIBRIUM PROPERTIES AT ASSIGNED

                           TEMPERATURE AND PRESSURE

 CASE =                

             REACTANT                       MOLES         ENERGY      TEMP
                                                         KJ/KG-MOL      K
 FUEL        C6H6                         1.0000000     83032.119    300.000
 OXIDANT     O2                           7.5000000        54.358    300.000
 OXIDANT     N2                          28.2143000        53.881    300.000

 O/F=   11.99177  %FUEL=  7.697178  R,EQ.RATIO= 1.100000  PHI,EQ.RATIO= 1.100000

 THERMODYNAMIC PROPERTIES

 P, BAR            1.0000   1.0000   1.0000   1.0000   1.0000   1.0000   1.0000   1.0000
 T, K             7000.00  8000.00  9000.00 10000.00 11000.00 12000.00 13000.00 14000.00
 RHO, KG/CU M    2.8103-2 2.0840-2 1.7810-2 1.5907-2 1.4435-2 1.3225-2 1.2205-2 1.1333-2
 H, KJ/KG         29093.4  42279.8  47294.7  49989.1  52251.6  54425.7  56581.7  58738.2
 U, KJ/KG         25535.1  37481.4  41680.0  43702.6  45323.9  46864.2  48388.5  49914.1
 G, KJ/KG        -78044.7 -94374.1-111804.5-129634.5-147707.8-165982.2-184437.0-203057.7
 S, KJ/(KG)(K)    15.3054  17.0817  17.6777  17.9624  18.1781  18.3673  18.5399  18.6997

 M, (1/n)          16.356   13.862   13.328   13.226   13.202   13.195   13.193   13.192
 (dLV/dLP)t      -1.10004 -1.04184 -1.00997 -1.00265 -1.00087 -1.00034 -1.00015 -1.00008
 (dLV/dLT)p        2.7588   1.6434   1.1372   1.0330   1.0098   1.0035   1.0015   1.0007
 Cp, KJ/(KG)(K)   17.5721   7.9410   3.2580   2.3705   2.1975   2.1600   2.1546   2.1595
 GAMMAs            1.1365   1.1935   1.3117   1.3895   1.4112   1.4153   1.4149   1.4128
 SON VEL,M/SEC     2011.0   2393.1   2713.8   2955.6   3126.7   3271.4   3404.7   3530.8

 MOLE FRACTIONS

 *C              5.2357-2 7.5425-2 7.7634-2 7.7895-2 7.7952-2 7.7971-2 7.7978-2 7.7982-2
 *CH             4.2854-6 2.4034-6 1.2824-6 7.6871-7 5.0023-7 3.4527-7 2.4906-7 1.8584-7
 CH2             2.481-10 4.364-11 1.034-11 3.327-12 1.314-12 6.022-13 3.091-13 1.733-13
 CH3             9.151-15 5.041-16 5.318-17 9.211-18 2.208-18 6.699-19 2.431-19 1.014-19
 *CN             2.6772-3 1.0343-3 3.1156-4 1.1134-4 4.7230-5 2.2953-5 1.2405-5 7.2905-6
 CNN             4.772 -8 1.343 -8 2.538 -9 5.874-10 1.702-10 5.916-11 2.373-11 1.067-11
 *CO             4.1610-2 5.4673-3 8.4107-4 1.8481-4 5.3499-5 1.9123-5 8.0638-6 3.8793-6
 *CO2            1.226 -6 5.570 -8 3.713 -9 4.276-10 7.412-11 1.745-11 5.196-12 1.859-12
 COOH            3.290-12 1.086-13 6.041-15 6.025-16 9.106-17 1.872-17 4.873-18 1.525-18
 *C2             2.6318-5 1.4546-5 5.5100-6 2.4378-6 1.2457-6 7.1039-7 4.4034-7 2.9101-7
 C2H             1.242 -8 2.013 -9 3.185-10 7.134-11 2.086-11 7.448-12 3.096-12 1.449-12
 C2H2,acetylene  7.335-13 3.206-14 2.040-15 2.289-16 3.866-17 8.827-18 2.535-18 8.705-19
 C2H2,vinylidene 8.970-14 5.119-15 3.918-16 5.008-17 9.273-18 2.259-18 6.783-19 2.398-19
 CH2CO,ketene    3.331-16 4.339-18 1.026-19 5.172-21 4.489-22 5.826-23 1.028-23 2.308-24
 CCN             1.888 -8 4.702 -9 7.697-10 1.637-10 4.483-11 1.497-11 5.833-12 2.565-12
 CNC             1.248 -7 2.403 -8 3.215 -9 5.812-10 1.392-10 4.156-11 1.471-11 5.956-12
 OCCN            1.119 -9 4.565-11 1.777-12 1.204-13 1.295-14 1.984-15 3.994-16 9.968-17
 C2N2            2.147 -9 9.939-11 3.617-12 2.216-13 2.174-14 3.080-15 5.802-16 1.368-16
 C2O             3.358 -7 3.473 -8 3.448 -9 5.227-10 1.108-10 3.026-11 1.002-11 3.864-12
 *C3             1.592 -8 2.770 -9 3.347-10 5.853-11 1.398-11 4.221-12 1.522-12 6.296-13
 C3O2            5.324-14 4.466-16 4.725-18 1.176-19 5.679-21 4.507-22 5.237-23 8.200-24
 *C4             7.448-13 6.373-14 3.394-15 2.998-16 4.073-17 7.670-18 1.854-18 5.445-19
 *C5             3.939-16 1.031-17 1.677-19 5.587-21 3.391-22 3.245-23 4.404-24 7.849-25
 *H              9.6612-2 8.1921-2 7.8780-2 7.8186-2 7.8049-2 7.8010-2 7.7997-2 7.7992-2
 HCN             4.776 -7 4.830 -8 5.562 -9 9.363-10 2.140-10 6.176-11 2.135-11 8.504-12
 HCO             5.203 -8 4.906 -9 6.356-10 1.239-10 3.235-11 1.049-11 4.015-12 1.750-12
 HCCN            1.543-12 1.375-13 1.111-14 1.382-15 2.457-16 5.745-17 1.659-17 5.653-18
 HCCO            6.849-12 2.773-13 1.447-14 1.340-15 1.901-16 3.711-17 9.243-18 2.785-18
 HNC             3.200 -7 3.630 -8 4.558 -9 8.204-10 1.977-10 5.953-11 2.130-11 8.731-12
 HNCO            3.702-11 1.244-12 5.872-14 4.846-15 6.164-16 1.088-16 2.473-17 6.856-18
 HNO             5.233 -9 1.002 -9 2.386-10 7.382-11 2.792-11 1.230-11 6.094-12 3.314-12
 HNO2            1.311-13 9.447-15 1.013-15 1.656-16 3.705-17 1.049-17 3.562-18 1.396-18
 HO2             1.454-10 2.590-11 6.928-12 2.485-12 1.076-12 5.342-13 2.941-13 1.755-13
 *H2             9.2322-6 2.4509-6 1.0441-6 5.5205-7 3.2946-7 2.1364-7 1.4729-7 1.0641-7
 HCHO,formaldehy 1.929-13 6.950-15 4.670-16 5.527-17 9.656-18 2.246-18 6.497-19 2.229-19
 H2O             2.685 -9 2.405-10 4.264-11 1.124-11 3.808-12 1.545-12 7.191-13 3.725-13
 H2O2            2.762-15 1.860-16 2.564-17 5.556-18 1.605-18 5.700-19 2.368-19 1.112-19
 *N              4.3462-1 6.1152-1 6.5514-1 6.6378-1 6.6582-1 6.6641-1 6.6662-1 6.6670-1
 NCO             5.310 -7 6.031 -8 6.726 -9 1.080 -9 2.360-10 6.541-11 2.179-11 8.393-12
 *NH             3.5961-5 1.9546-5 1.0795-5 6.5085-6 4.2338-6 2.9201-6 2.1069-6 1.5746-6
 NH2             1.567 -9 3.059-10 8.353-11 2.948-11 1.249-11 6.067-12 3.274-12 1.919-12
 NH3             3.045-14 1.852-15 2.235-16 4.208-17 1.072-17 3.417-18 1.291-18 5.580-19
 *NO             1.6894-3 5.6412-4 1.8892-4 7.5145-5 3.4879-5 1.8283-5 1.0542-5 6.5553-6
 NO2             3.318 -9 6.208-10 1.299-10 3.586-11 1.238-11 5.073-12 2.372-12 1.230-12
 NO3             3.082-16 3.527-17 4.805-18 9.328-19 2.390-19 7.562-20 2.817-20 1.194-20
 *N2             1.9389-1 4.3798-2 9.0295-3 2.2957-3 7.2613-4 2.7476-4 1.2009-4 5.8997-5
 NCN             2.009 -7 4.235 -8 6.393 -9 1.235 -9 3.085-10 9.472-11 3.421-11 1.405-11
 N2H2            1.249-13 1.357-14 1.913-15 3.786-16 9.853-17 3.164-17 1.197-17 5.148-18
 N2O             6.737 -8 1.157 -8 1.882 -9 3.985-10 1.083-10 3.588-11 1.388-11 6.076-12
 N3              4.259 -8 1.252 -8 2.569 -9 6.147-10 1.806-10 6.302-11 2.523-11 1.129-11
 N3H             2.521-12 2.847-13 3.044-14 4.438-15 8.748-16 2.194-16 6.654-17 2.347-17
 *O              1.7641-1 1.8022-1 1.7805-1 1.7746-1 1.7731-1 1.7727-1 1.7725-1 1.7725-1
 *OH             3.3546-5 1.0645-5 4.5974-6 2.4016-6 1.4092-6 8.9749-7 6.0776-7 4.3153-7
 *O2             1.8323-5 6.2951-6 2.5816-6 1.2761-6 7.1595-7 4.3999-7 2.8952-7 2.0082-7
 O3              1.325-11 4.607-12 1.876-12 9.385-13 5.383-13 3.406-13 2.321-13 1.674-13

  * THERMODYNAMIC PROPERTIES FITTED TO 20000.K









               THERMODYNAMIC EQUILIBRIUM PROPERTIES AT ASSIGNED

                           TEMPERATURE AND PRESSURE

 CASE =                

             REACTANT                       MOLES         ENERGY      TEMP
                                                         KJ/KG-MOL      K
 FUEL        C6H6                         1.0000000     83032.119    300.000
 OXIDANT     O2                           7.5000000        54.358    300.000
 OXIDANT     N2                          28.2143000        53.881    300.000

 O/F=   11.99177  %FUEL=  7.697178  R,EQ.RATIO= 1.100000  PHI,EQ.RATIO= 1.100000

 THERMODYNAMIC PROPERTIES

 P, BAR            1.0000   1.0000
 T, K            15000.00 16000.00
 RHO, KG/CU M    1.0577-2 9.9155-3
 H, KJ/KG         60902.1  63076.3
 U, KJ/KG         51447.4  52991.1
 G, KJ/KG       -221832.9-240752.7
 S, KJ/(KG)(K)    18.8490  18.9893

 M, (1/n)          13.191   13.191
 (dLV/dLP)t      -1.00004 -1.00003
 (dLV/dLT)p        1.0004   1.0002
 Cp, KJ/(KG)(K)    2.1688   2.1799
 GAMMAs            1.4100   1.4070
 SON VEL,M/SEC     3651.2   3766.9

 MOLE FRACTIONS

 *C              7.7984-2 7.7985-2
 *CH             1.4240-7 1.1147-7
 CH2             1.042-13 6.628-14
 *CN             4.5816-6 3.0398-6
 CNN             5.258-12 2.793-12
 *CO             2.0756-6 1.2108-6
 *CO2            7.687-13 3.573-13
 *C2             2.0216-7 1.4608-7
 C2H             7.453-13 4.134-13
 CCN             1.243-12 6.513-13
 CNC             2.684-12 1.320-12
 C2O             1.679-12 8.044-13
 *C3             2.899-13 1.455-13
 *H              7.7989-2 7.7989-2
 HCN             3.794-12 1.856-12
 HCO             8.454-13 4.441-13
 HNC             3.989-12 1.990-12
 HNO             1.941-12 1.208-12
 HO2             1.118-13 7.501-14
 *H2             7.9732-8 6.1507-8
 H2O             2.101-13 1.269-13
 *N              6.6674-1 6.6675-1
 NCO             3.631-12 1.727-12
 *NH             1.2103-6 9.5158-7
 NH2             1.202-12 7.940-13
 *NO             4.3299-6 3.0029-6
 NO2             6.939-13 4.188-13
 *N2             3.1897-5 1.8663-5
 NCN             6.401-12 3.174-12
 N2O             2.938-12 1.541-12
 N3              5.523-12 2.911-12
 *O              1.7725-1 1.7725-1
 *OH             3.1809-7 2.4163-7
 *O2             1.4519-7 1.0850-7
 O3              1.264-13 9.900-14

  * THERMODYNAMIC PROPERTIES FITTED TO 20000.K



