

         NASA-GLENN CHEMICAL EQUILIBRIUM PROGRAM CEA2, FEBRUARY 5, 2004
                   BY  BONNIE MCBRIDE AND SANFORD GORDON
      REFS: NASA RP-1311, PART I, 1994 AND NASA RP-1311, PART II, 1996

 *******************************************************************************

  
 ### CEA analysis performed on Wed 20-Apr-2022 15:44:10
  
 # Problem Type: "Rocket" (Finite Area Combustor)
  
 prob case=test___________2464 ro equilibrium    fac
  
 !Contraction Ratio:
 ac/at=2
  
 # Pressure (1 value):
 p,bar= 22
 # Supersonic Area Ratio (1 value):
 supar= 2
  
 # Equivalence based on Fuel/Oxid. wt ratio (Eq 9.19*) (20 values):
 phi= 1, 1.1, 1.2, 1.3, 1.4, 1.5, 1.6, 1.7, 1.8, 1.9, 2, 2.1, 2.2, 2.3, 2.4, 2.5,
  2.6, 2.7, 2.8, 2.9
  
 # You selected the following fuels and oxidizers:
 reac
 fuel RP-1             mole=100.0000
 oxid O2(L)            mole=100.0000
  
 # You selected these options for output:
 # short version of output
 output short
 # Proportions of any products will be expressed as Mole Fractions.
 # Heat will be expressed as siunits
 output siunits
 # Trace variable:
 output trace=1e-16
  
 # Input prepared by this script:/var/www/sites/cearun.grc.nasa.gov/cgi-bin/CEARU
 N/prepareInputFile.cgi
  
 ### IMPORTANT:  The following line is the end of your CEA input file!
 end

              THEORETICAL ROCKET PERFORMANCE ASSUMING EQUILIBRIUM

            COMPOSITION DURING EXPANSION FROM FINITE AREA COMBUSTOR

 Pin =   319.1 PSIA
 Ac/At =  2.0000      Pinj/Pinf =  1.051270
 CASE = test___________

             REACTANT                       MOLES         ENERGY      TEMP
                                                         KJ/KG-MOL      K
 FUEL        RP-1                       100.0000000    -24717.700    298.150
 OXIDANT     O2(L)                      100.0000000    -12979.000     90.170

 O/F=    3.40567  %FUEL= 22.698042  R,EQ.RATIO= 1.000000  PHI,EQ.RATIO= 1.000000

                 INJECTOR  COMB END  THROAT     EXIT
 Pinj/P            1.0000   1.1112   1.8104   7.7691
 P, BAR            22.000   19.799   12.152   2.8317
 T, K             3509.97  3486.71  3352.59  3002.00
 RHO, KG/CU M    1.9076 0 1.7297 0 1.1194 0 3.0288-1
 H, KJ/KG         -714.97  -778.60 -1322.72 -2790.16
 U, KJ/KG        -1868.27 -1923.25 -2408.37 -3725.09
 G, KJ/KG        -39234.9 -39100.5 -38170.5 -35784.7
 S, KJ/(KG)(K)    10.9744  10.9908  10.9908  10.9908

 M, (1/n)          25.305   25.327   25.676   26.697
 (dLV/dLP)t      -1.05876 -1.05864 -1.05565 -1.04651
 (dLV/dLT)p        2.0603   2.0653   2.0543   1.9914
 Cp, KJ/(KG)(K)    8.2358   8.3017   8.4103   8.5049
 GAMMAs            1.1243   1.1236   1.1196   1.1095
 SON VEL,M/SEC     1138.7   1134.1   1102.5   1018.5
 MACH NUMBER        0.000    0.315    1.000    2.000

 PERFORMANCE PARAMETERS

 Ae/At                      2.0000   1.0000   2.0000
 CSTAR, M/SEC               1695.8   1695.8   1695.8
 CF                         0.2104   0.6501   1.2014
 Ivac, M/SEC                3565.4   2087.2   2496.2
 Isp, M/SEC                  356.7   1102.5   2037.2

 MOLE FRACTIONS

 *C              4.015-10 3.482-10 1.349-10 7.465-12
 *CH             8.292-11 7.009-11 2.458-11 1.012-12
 CH2             6.576-11 5.535-11 1.996-11 8.962-13
 CH3             4.459-11 3.760-11 1.449-11 8.035-13
 CH2OH           2.706-11 2.249-11 8.453-12 4.317-13
 CH3O            8.602-12 7.062-12 2.470-12 1.022-13
 CH4             5.325-12 4.453-12 1.725-12 9.985-14
 CH3OH           8.222-13 6.745-13 2.479-13 1.199-14
 CH3OOH          1.514-16 1.157-16 2.966-17 4.796-19
 *CO             2.1683-1 2.1613-1 2.0694-1 1.7693-1
 *CO2            1.9411-1 1.9518-1 2.1004-1 2.5664-1
 COOH            8.1147-6 7.4253-6 4.7751-6 1.2292-6
 *C2             1.224-15 9.524-16 2.043-16 1.888-18
 C2H             1.425-14 1.115-14 2.603-15 3.141-17
 C2H2,acetylene  6.847-14 5.481-14 1.554-14 3.421-16
 C2H2,vinylidene 5.840-16 4.498-16 1.010-16 1.084-18
 CH2CO,ketene    1.514-12 1.226-12 3.975-13 1.305-14
 O(CH)2O         4.741-14 3.770-14 1.167-14 3.322-16
 HO(CO)2OH       5.527-14 4.433-14 1.642-14 8.095-16
 CH3CO,acetyl    8.068-16 6.125-16 1.421-16 1.707-18
 C2O             4.442-11 3.702-11 1.279-11 5.032-13
 C3O2            5.021-14 3.975-14 1.142-14 2.589-16
 *H              2.5904-2 2.5881-2 2.3433-2 1.7039-2
 HCO             6.0084-6 5.4810-6 3.2451-6 6.4959-7
 HCCO            2.248-12 1.824-12 5.672-13 1.626-14
 HO2             1.9741-4 1.8654-4 1.3705-4 5.2519-5
 *H2             4.0350-2 4.0282-2 3.8307-2 3.2466-2
 HCHO,formaldehy 8.1155-8 7.2585-8 4.0289-8 6.6976-9
 HCOOH           5.5235-7 4.9606-7 3.0092-7 6.5521-8
 H2O             2.9960-1 3.0045-1 3.1299-1 3.4875-1
 H2O2            1.4584-5 1.3515-5 9.3130-6 2.9565-6
 *O              3.3121-2 3.2908-2 2.9091-2 1.9470-2
 *OH             9.5326-2 9.4497-2 8.6944-2 6.5945-2
 *O2             9.4526-2 9.4456-2 9.2096-2 8.2697-2
 O3              5.1774-7 4.7006-7 2.7491-7 5.4072-8

  * THERMODYNAMIC PROPERTIES FITTED TO 20000.K

              THEORETICAL ROCKET PERFORMANCE ASSUMING EQUILIBRIUM

            COMPOSITION DURING EXPANSION FROM FINITE AREA COMBUSTOR

 Pin =   319.1 PSIA
 Ac/At =  2.0000      Pinj/Pinf =  1.051312
 CASE = test___________

             REACTANT                       MOLES         ENERGY      TEMP
                                                         KJ/KG-MOL      K
 FUEL        RP-1                       100.0000000    -24717.700    298.150
 OXIDANT     O2(L)                      100.0000000    -12979.000     90.170

 O/F=    3.09606  %FUEL= 24.413703  R,EQ.RATIO= 1.100000  PHI,EQ.RATIO= 1.100000

                 INJECTOR  COMB END  THROAT     EXIT
 Pinj/P            1.0000   1.1113   1.8113   7.7828
 P, BAR            22.000   19.797   12.146   2.8268
 T, K             3524.09  3500.51  3364.24  3007.65
 RHO, KG/CU M    1.8445 0 1.6725 0 1.0825 0 2.9300-1
 H, KJ/KG         -738.36  -804.21 -1367.22 -2884.05
 U, KJ/KG        -1931.10 -1987.93 -2489.32 -3848.80
 G, KJ/KG        -40264.8 -40125.5 -39157.8 -36669.1
 S, KJ/(KG)(K)    11.2161  11.2330  11.2330  11.2330

 M, (1/n)          24.566   24.588   24.928   25.921
 (dLV/dLP)t      -1.05835 -1.05822 -1.05501 -1.04506
 (dLV/dLT)p        2.0449   2.0497   2.0349   1.9555
 Cp, KJ/(KG)(K)    8.3272   8.3931   8.4807   8.4665
 GAMMAs            1.1256   1.1249   1.1209   1.1109
 SON VEL,M/SEC     1158.7   1153.9   1121.5   1035.2
 MACH NUMBER        0.000    0.315    1.000    2.001

 PERFORMANCE PARAMETERS

 Ae/At                      2.0000   1.0000   2.0000
 CSTAR, M/SEC               1723.8   1723.8   1723.8
 CF                         0.2105   0.6506   1.2017
 Ivac, M/SEC                3624.5   2122.0   2537.3
 Isp, M/SEC                  362.9   1121.5   2071.6

 MOLE FRACTIONS

 *C              6.324-10 5.483-10 2.149-10 1.239-11
 *CH             1.456-10 1.231-10 4.389-11 1.926-12
 CH2             1.270-10 1.070-10 3.950-11 1.943-12
 CH3             9.444-11 7.972-11 3.168-11 1.980-12
 CH2OH           4.617-11 3.840-11 1.475-11 8.188-13
 CH3O            1.478-11 1.214-11 4.337-12 1.946-13
 CH4             1.244-11 1.042-11 4.188-12 2.805-13
 CH3OH           1.552-12 1.274-12 4.815-13 2.596-14
 CH3OOH          2.379-16 1.820-16 4.740-17 8.139-19
 *CO             2.5078-1 2.5011-1 2.4193-1 2.1486-1
 *CO2            1.7833-1 1.7937-1 1.9351-1 2.3793-1
 COOH            8.6595-6 7.9255-6 5.1201-6 1.3370-6
 *C2             2.790-15 2.173-15 4.799-16 4.960-18
 C2H             3.556-14 2.785-14 6.742-15 9.369-17
 C2H2,acetylene  1.850-13 1.483-13 4.397-14 1.152-15
 C2H2,vinylidene 1.615-15 1.245-15 2.917-16 3.697-18
 CH2CO,ketene    3.244-12 2.631-12 8.847-13 3.350-14
 O(CH)2O         8.199-14 6.527-14 2.077-14 6.571-16
 HO(CO)2OH       6.063-14 4.866-14 1.824-14 9.360-16
 CH3CO,acetyl    1.972-15 1.499-15 3.621-16 5.093-18
 C2O             7.763-11 6.475-11 2.293-11 9.896-13
 C3O2            9.804-14 7.775-14 2.319-14 6.055-16
 *H              3.0308-2 3.0277-2 2.7465-2 2.0103-2
 HCO             8.0447-6 7.3420-6 4.4020-6 9.2370-7
 HCCO            4.381-12 3.560-12 1.140-12 3.669-14
 HO2             1.5228-4 1.4375-4 1.0381-4 3.7008-5
 *H2             5.1848-2 5.1772-2 4.9673-2 4.3580-2
 HCHO,formaldehy 1.2069-7 1.0803-7 6.1081-8 1.0901-8
 HCOOH           6.5431-7 5.8792-7 3.6042-7 8.1540-8
 H2O             3.0656-1 3.0743-1 3.2057-1 3.5795-1
 H2O2            1.2495-5 1.1570-5 7.8841-6 2.3847-6
 *O              2.8284-2 2.8079-2 2.4490-2 1.5496-2
 *OH             8.9480-2 8.8662-2 8.1040-2 5.9741-2
 *O2             6.4236-2 6.4120-2 6.1201-2 5.0305-2
 O3              2.9761-7 2.6966-7 1.5230-7 2.5962-8

  * THERMODYNAMIC PROPERTIES FITTED TO 20000.K

              THEORETICAL ROCKET PERFORMANCE ASSUMING EQUILIBRIUM

            COMPOSITION DURING EXPANSION FROM FINITE AREA COMBUSTOR

 Pin =   319.1 PSIA
 Ac/At =  2.0000      Pinj/Pinf =  1.051379
 CASE = test___________

             REACTANT                       MOLES         ENERGY      TEMP
                                                         KJ/KG-MOL      K
 FUEL        RP-1                       100.0000000    -24717.700    298.150
 OXIDANT     O2(L)                      100.0000000    -12979.000     90.170

 O/F=    2.83806  %FUEL= 26.054862  R,EQ.RATIO= 1.200000  PHI,EQ.RATIO= 1.200000

                 INJECTOR  COMB END  THROAT     EXIT
 Pinj/P            1.0000   1.1114   1.8127   7.8107
 P, BAR            22.000   19.794   12.136   2.8166
 T, K             3524.11  3500.24  3360.71  2992.51
 RHO, KG/CU M    1.7920 0 1.6247 0 1.0517 0 2.8484-1
 H, KJ/KG         -760.72  -828.60 -1408.63 -2969.12
 U, KJ/KG        -1988.43 -2046.92 -2562.55 -3957.97
 G, KJ/KG        -41076.1 -40932.0 -39913.4 -37255.3
 S, KJ/(KG)(K)    11.4399  11.4573  11.4573  11.4573

 M, (1/n)          23.867   23.888   24.215   25.162
 (dLV/dLP)t      -1.05489 -1.05472 -1.05090 -1.03857
 (dLV/dLT)p        1.9797   1.9834   1.9554   1.8193
 Cp, KJ/(KG)(K)    8.1267   8.1853   8.1850   7.7570
 GAMMAs            1.1276   1.1268   1.1230   1.1141
 SON VEL,M/SEC     1176.6   1171.7   1138.3   1049.6
 MACH NUMBER        0.000    0.314    1.000    2.002

 PERFORMANCE PARAMETERS

 Ae/At                      2.0000   1.0000   2.0000
 CSTAR, M/SEC               1747.8   1747.8   1747.8
 CF                         0.2108   0.6513   1.2025
 Ivac, M/SEC                3675.1   2152.0   2572.1
 Isp, M/SEC                  368.4   1138.3   2101.6

 MOLE FRACTIONS

 *C              8.926-10 7.733-10 3.019-10 1.690-11
 *CH             2.312-10 1.953-10 7.000-11 3.095-12
 CH2             2.270-10 1.912-10 7.176-11 3.746-12
 CH3             1.898-10 1.604-10 6.561-11 4.607-12
 CH2OH           7.432-11 6.183-11 2.418-11 1.436-12
 CH3O            2.379-11 1.955-11 7.098-12 3.379-13
 CH4             2.813-11 2.359-11 9.875-12 7.816-13
 CH3OH           2.810-12 2.310-12 8.981-13 5.426-14
 CH3OOH          3.451-16 2.639-16 6.935-17 1.221-18
 *CO             2.8347-1 2.8287-1 2.7599-1 2.5316-1
 *CO2            1.6144-1 1.6244-1 1.7543-1 2.1591-1
 COOH            8.8197-6 8.0712-6 5.2096-6 1.3445-6
 *C2             5.559-15 4.329-15 9.687-16 1.041-17
 C2H             7.970-14 6.245-14 1.552-14 2.379-16
 C2H2,acetylene  4.664-13 3.746-13 1.158-13 3.597-15
 C2H2,vinylidene 4.071-15 3.144-15 7.635-16 1.115-17
 CH2CO,ketene    6.550-12 5.320-12 1.853-12 8.075-14
 O(CH)2O         1.326-13 1.057-13 3.441-14 1.191-15
 HO(CO)2OH       6.289-14 5.050-14 1.907-14 9.979-16
 C2H3,vinyl      2.015-16 1.513-16 3.314-17 3.632-19
 CH3CO,acetyl    4.480-15 3.411-15 8.554-16 1.397-17
 C2O             1.239-10 1.033-10 3.714-11 1.686-12
 C3O2            1.768-13 1.404-13 4.322-14 1.275-15
 *H              3.4099-2 3.4048-2 3.0789-2 2.2124-2
 HCO             1.0231-5 9.3384-6 5.6411-6 1.2122-6
 HCCO            7.864-12 6.394-12 2.096-12 7.352-14
 HO2             1.0990-4 1.0356-4 7.2615-5 2.2622-5
 *H2             6.5623-2 6.5544-2 6.3460-2 5.7723-2
 HCHO,formaldehy 1.7268-7 1.5465-7 8.8932-8 1.6941-8
 HCOOH           7.4972-7 6.7390-7 4.1671-7 9.7186-8
 H2O             3.1074-1 3.1164-1 3.2524-1 3.6362-1
 H2O2            1.0145-5 9.3818-6 6.2658-6 1.7258-6
 *O              2.2654-2 2.2455-2 1.9096-2 1.0760-2
 *OH             8.0626-2 7.9822-2 7.1998-2 4.9860-2
 *O2             4.1205-2 4.1058-2 3.7905-2 2.6818-2
 O3              1.5291-7 1.3810-7 7.3697-8 9.7462-9

  * THERMODYNAMIC PROPERTIES FITTED TO 20000.K

              THEORETICAL ROCKET PERFORMANCE ASSUMING EQUILIBRIUM

            COMPOSITION DURING EXPANSION FROM FINITE AREA COMBUSTOR

 Pin =   319.1 PSIA
 Ac/At =  2.0000      Pinj/Pinf =  1.051483
 CASE = test___________

             REACTANT                       MOLES         ENERGY      TEMP
                                                         KJ/KG-MOL      K
 FUEL        RP-1                       100.0000000    -24717.700    298.150
 OXIDANT     O2(L)                      100.0000000    -12979.000     90.170

 O/F=    2.61974  %FUEL= 27.626269  R,EQ.RATIO= 1.300000  PHI,EQ.RATIO= 1.300000

                 INJECTOR  COMB END  THROAT     EXIT
 Pinj/P            1.0000   1.1117   1.8152   7.8646
 P, BAR            22.000   19.790   12.120   2.7973
 T, K             3508.80  3484.63  3340.04  2950.10
 RHO, KG/CU M    1.7493 0 1.5859 0 1.0268 0 2.7828-1
 H, KJ/KG         -782.14  -851.81 -1446.91 -3044.86
 U, KJ/KG        -2039.79 -2099.71 -2627.26 -4050.08
 G, KJ/KG        -41648.3 -41499.2 -40407.7 -37457.1
 S, KJ/(KG)(K)    11.6468  11.6648  11.6648  11.6648

 M, (1/n)          23.197   23.217   23.528   24.401
 (dLV/dLP)t      -1.04845 -1.04820 -1.04343 -1.02777
 (dLV/dLT)p        1.8656   1.8673   1.8175   1.5958
 Cp, KJ/(KG)(K)    7.6146   7.6581   7.5003   6.3918
 GAMMAs            1.1304   1.1297   1.1264   1.1210
 SON VEL,M/SEC     1192.3   1187.4   1153.1   1061.6
 MACH NUMBER        0.000    0.314    1.000    2.004

 PERFORMANCE PARAMETERS

 Ae/At                      2.0000   1.0000   2.0000
 CSTAR, M/SEC               1767.2   1767.2   1767.2
 CF                         0.2112   0.6525   1.2038
 Ivac, M/SEC                3716.3   2176.7   2599.8
 Isp, M/SEC                  373.3   1153.1   2127.3

 MOLE FRACTIONS

 *C              1.134 -9 9.800-10 3.742-10 1.828-11
 *CH             3.347-10 2.824-10 1.003-10 4.118-12
 CH2             3.798-10 3.198-10 1.212-10 6.460-12
 CH3             3.686-10 3.118-10 1.316-10 1.048-11
 CH2OH           1.141-10 9.497-11 3.771-11 2.359-12
 CH3O            3.625-11 2.979-11 1.094-11 5.396-13
 CH4             6.299-11 5.293-11 2.328-11 2.297-12
 CH3OH           4.960-12 4.082-12 1.639-12 1.134-13
 CH3OOH          4.644-16 3.549-16 9.327-17 1.603-18
 *CO             3.1466-1 3.1414-1 3.0883-1 2.9152-1
 *CO2            1.4385-1 1.4478-1 1.5622-1 1.9081-1
 COOH            8.5670-6 7.8355-6 5.0153-6 1.2280-6
 *C2             9.822-15 7.637-15 1.702-15 1.722-17
 C2H             1.637-13 1.283-13 3.246-14 5.233-16
 C2H2,acetylene  1.128-12 9.071-13 2.935-13 1.102-14
 C2H2,vinylidene 9.598-15 7.418-15 1.863-15 3.091-17
 CH2CO,ketene    1.274-11 1.036-11 3.746-12 1.908-13
 O(CH)2O         2.034-13 1.622-13 5.392-14 2.014-15
 HO(CO)2OH       6.180-14 4.962-14 1.875-14 9.717-16
 C2H3,vinyl      5.406-16 4.066-16 9.318-17 1.231-18
 CH3CO,acetyl    9.681-15 7.382-15 1.924-15 3.684-17
 C2H4            1.201-16 9.069-17 2.306-17 4.518-19
 CH3CHO,ethanal  1.472-16 1.106-16 2.845-17 5.525-19
 CH3COOH         1.003-16 7.560-17 2.062-17 4.638-19
 C2O             1.826-10 1.523-10 5.500-11 2.487-12
 C3O2            3.004-13 2.389-13 7.564-14 2.493-15
 *H              3.6881-2 3.6794-2 3.2946-2 2.2348-2
 HCO             1.2425-5 1.1339-5 6.8622-6 1.4641-6
 HCCO            1.321-11 1.074-11 3.584-12 1.330-13
 HO2             7.3028-5 6.8618-5 4.5825-5 1.1152-5
 *H2             8.2228-2 8.2158-2 8.0367-2 7.6278-2
 HCHO,formaldehy 2.3998-7 2.1506-7 1.2573-7 2.5563-8
 HCOOH           8.3390-7 7.4977-7 4.6670-7 1.1118-7
 H2O             3.1172-1 3.1262-1 3.2640-1 3.6433-1
 H2O2            7.7151-6 7.1198-6 4.5957-6 1.0621-6
 *O              1.6812-2 1.6620-2 1.3537-2 6.1234-3
 *OH             6.9251-2 6.8459-2 6.0317-2 3.6974-2
 *O2             2.4498-2 2.4339-2 2.1317-2 1.1603-2
 O3              6.8164-8 6.1234-8 2.9834-8 2.5067-9

  * THERMODYNAMIC PROPERTIES FITTED TO 20000.K

              THEORETICAL ROCKET PERFORMANCE ASSUMING EQUILIBRIUM

            COMPOSITION DURING EXPANSION FROM FINITE AREA COMBUSTOR

 Pin =   319.1 PSIA
 Ac/At =  2.0000      Pinj/Pinf =  1.051648
 CASE = test___________

             REACTANT                       MOLES         ENERGY      TEMP
                                                         KJ/KG-MOL      K
 FUEL        RP-1                       100.0000000    -24717.700    298.150
 OXIDANT     O2(L)                      100.0000000    -12979.000     90.170

 O/F=    2.43262  %FUEL= 29.132277  R,EQ.RATIO= 1.400000  PHI,EQ.RATIO= 1.400000

                 INJECTOR  COMB END  THROAT     EXIT
 Pinj/P            1.0000   1.1120   1.8192   7.9656
 P, BAR            22.000   19.784   12.093   2.7619
 T, K             3475.95  3451.40  3298.89  2870.23
 RHO, KG/CU M    1.7165 0 1.5559 0 1.0077 0 2.7334-1
 H, KJ/KG         -802.67  -873.90 -1481.95 -3110.51
 U, KJ/KG        -2084.33 -2145.42 -2682.08 -4120.91
 G, KJ/KG        -41949.1 -41793.9 -40593.7 -37140.1
 S, KJ/(KG)(K)    11.8375  11.8560  11.8560  11.8560

 M, (1/n)          22.550   22.569   22.855   23.619
 (dLV/dLP)t      -1.03968 -1.03935 -1.03364 -1.01620
 (dLV/dLT)p        1.7129   1.7120   1.6381   1.3536
 Cp, KJ/(KG)(K)    6.8258   6.8481   6.4971   4.7786
 GAMMAs            1.1348   1.1342   1.1320   1.1348
 SON VEL,M/SEC     1206.0   1200.9   1165.6   1070.8
 MACH NUMBER        0.000    0.314    1.000    2.006

 PERFORMANCE PARAMETERS

 Ae/At                      2.0000   1.0000   2.0000
 CSTAR, M/SEC               1781.1   1781.1   1781.1
 CF                         0.2119   0.6544   1.2062
 Ivac, M/SEC                3746.2   2195.2   2618.7
 Isp, M/SEC                  377.4   1165.6   2148.4

 MOLE FRACTIONS

 *C              1.285 -9 1.107 -9 4.023-10 1.429-11
 *CH             4.404-10 3.706-10 1.277-10 4.234-12
 CH2             5.977-10 5.028-10 1.906-10 9.675-12
 CH3             7.000-10 5.928-10 2.587-10 2.369-11
 CH2OH           1.680-10 1.398-10 5.611-11 3.586-12
 CH3O            5.245-11 4.308-11 1.591-11 7.769-13
 CH4             1.422-10 1.199-10 5.615-11 7.521-12
 CH3OH           8.625-12 7.110-12 2.963-12 2.425-13
 CH3OOH          5.786-16 4.414-16 1.144-16 1.754-18
 *CO             3.4400-1 3.4358-1 3.4002-1 3.2886-1
 *CO2            1.2600-1 1.2683-1 1.3636-1 1.6346-1
 COOH            7.9002-6 7.2163-6 4.5301-6 9.8257-7
 *C2             1.540-14 1.194-14 2.583-15 2.078-17
 C2H             3.111-13 2.435-13 6.200-14 9.681-16
 C2H2,acetylene  2.663-12 2.147-12 7.308-13 3.419-14
 C2H2,vinylidene 2.147-14 1.660-14 4.298-15 7.883-17
 CH2CO,ketene    2.420-11 1.972-11 7.432-12 4.538-13
 O(CH)2O         2.980-13 2.378-13 8.043-14 3.175-15
 HO(CO)2OH       5.742-14 4.608-14 1.728-14 8.440-16
 C2H3,vinyl      1.397-15 1.053-15 2.533-16 4.077-18
 CH3CO,acetyl    2.020-14 1.543-14 4.191-15 9.522-17
 C2H4            3.743-16 2.837-16 7.831-17 2.256-18
 CH3CHO,ethanal  3.612-16 2.722-16 7.471-17 1.964-18
 CH3COOH         1.958-16 1.479-16 4.250-17 1.219-18
 C2O             2.496-10 2.079-10 7.442-11 3.063-12
 C3O2            4.869-13 3.876-13 1.259-13 4.568-15
 *H              3.8170-2 3.8023-2 3.3374-2 1.9945-2
 HCO             1.4416-5 1.3146-5 7.9062-6 1.5882-6
 HCCO            2.093-11 1.702-11 5.733-12 2.140-13
 HO2             4.3740-5 4.0898-5 2.5251-5 3.9649-6
 *H2             1.0228-1 1.0225-1 1.0122-1 1.0099-1
 HCHO,formaldehy 3.2578-7 2.9212-7 1.7360-7 3.7595-8
 HCOOH           9.0109-7 8.1025-7 5.0621-7 1.2121-7
 H2O             3.0883-1 3.0972-1 3.2312-1 3.5756-1
 H2O2            5.4079-6 4.9729-6 3.0348-6 5.1099-7
 *O              1.1354-2 1.1175-2 8.4847-3 2.5820-3
 *OH             5.6092-2 5.5313-2 4.6861-2 2.2951-2
 *O2             1.3200-2 1.3050-2 1.0525-2 3.6459-3
 O3              2.537 -8 2.260 -8 9.532 -9 3.629-10

  * THERMODYNAMIC PROPERTIES FITTED TO 20000.K

              THEORETICAL ROCKET PERFORMANCE ASSUMING EQUILIBRIUM

            COMPOSITION DURING EXPANSION FROM FINITE AREA COMBUSTOR

 Pin =   319.1 PSIA
 Ac/At =  2.0000      Pinj/Pinf =  1.051903
 CASE = test___________

             REACTANT                       MOLES         ENERGY      TEMP
                                                         KJ/KG-MOL      K
 FUEL        RP-1                       100.0000000    -24717.700    298.150
 OXIDANT     O2(L)                      100.0000000    -12979.000     90.170

 O/F=    2.27044  %FUEL= 30.576886  R,EQ.RATIO= 1.500000  PHI,EQ.RATIO= 1.500000

                 INJECTOR  COMB END  THROAT     EXIT
 Pinj/P            1.0000   1.1126   1.8255   8.1322
 P, BAR            22.000   19.773   12.051   2.7053
 T, K             3423.00  3397.91  3233.53  2746.39
 RHO, KG/CU M    1.6942 0 1.5352 0 9.9460-1 2.7018-1
 H, KJ/KG         -822.36  -894.89 -1513.55 -3164.01
 U, KJ/KG        -2120.93 -2182.90 -2725.23 -4165.29
 G, KJ/KG        -41940.7 -41777.2 -40418.0 -36207.5
 S, KJ/(KG)(K)    12.0124  12.0316  12.0316  12.0316

 M, (1/n)          21.917   21.935   22.188   22.806
 (dLV/dLP)t      -1.03004 -1.02965 -1.02357 -1.00797
 (dLV/dLT)p        1.5449   1.5417   1.4527   1.1781
 Cp, KJ/(KG)(K)    5.8811   5.8816   5.3773   3.5274
 GAMMAs            1.1414   1.1409   1.1409   1.1567
 SON VEL,M/SEC     1217.5   1212.3   1175.8   1076.2
 MACH NUMBER        0.000    0.314    1.000    2.011

 PERFORMANCE PARAMETERS

 Ae/At                      2.0000   1.0000   2.0000
 CSTAR, M/SEC               1788.5   1788.5   1788.5
 CF                         0.2130   0.6574   1.2100
 Ivac, M/SEC                3762.6   2206.3   2626.8
 Isp, M/SEC                  380.9   1175.8   2164.1

 MOLE FRACTIONS

 *C              1.280 -9 1.095 -9 3.639-10 7.165-12
 *CH             5.203-10 4.357-10 1.412-10 3.039-12
 CH2             8.806-10 7.393-10 2.757-10 1.178-11
 CH3             1.305 -9 1.107 -9 5.001-10 5.197-11
 CH2OH           2.366-10 1.967-10 7.921-11 4.857-12
 CH3O            7.183-11 5.893-11 2.163-11 9.623-13
 CH4             3.276-10 2.774-10 1.407-10 2.783-11
 CH3OH           1.485-11 1.227-11 5.334-12 5.264-13
 CH3OOH          6.606-16 5.025-16 1.258-16 1.493-18
 *CO             3.7102-1 3.7071-1 3.6882-1 3.6259-1
 *CO2            1.0845-1 1.0915-1 1.1660-1 1.3635-1
 COOH            6.8688-6 6.2592-6 3.7941-6 6.6370-7
 *C2             2.118-14 1.633-14 3.306-15 1.622-17
 C2H             5.455-13 4.262-13 1.071-13 1.397-15
 C2H2,acetylene  6.211-12 5.020-12 1.806-12 1.060-13
 C2H2,vinylidene 4.573-14 3.537-14 9.367-15 1.760-16
 CH2CO,ketene    4.534-11 3.703-11 1.460-11 1.080-12
 O(CH)2O         4.182-13 3.336-13 1.141-13 4.552-15
 HO(CO)2OH       5.025-14 4.027-14 1.480-14 6.418-16
 C2H3,vinyl      3.508-15 2.647-15 6.690-16 1.278-17
 CH3CO,acetyl    4.100-14 3.136-14 8.882-15 2.362-16
 C2H4            1.188-15 9.050-16 2.761-16 1.271-17
 CH3CHO,ethanal  8.883-16 6.720-16 1.993-16 7.513-18
 CH3COOH         3.797-16 2.876-16 8.789-17 3.372-18
 C2O             3.151-10 2.618-10 9.097-11 2.956-12
 C3O2            7.584-13 6.040-13 2.005-13 7.725-15
 *H              3.7488-2 3.7252-2 3.1563-2 1.4970-2
 HCO             1.5916-5 1.4491-5 8.5557-6 1.4886-6
 HCCO            3.127-11 2.541-11 8.539-12 2.924-13
 HO2             2.3042-5 2.1378-5 1.1704-5 9.1807-7
 *H2             1.2629-1 1.2634-1 1.2668-1 1.3257-1
 HCHO,formaldehy 4.3266-7 3.8818-7 2.3413-7 5.3118-8
 HCOOH           9.4469-7 8.4925-7 5.3009-7 1.2446-7
 H2O             3.0130-1 3.0213-1 3.1429-1 3.4078-1
 H2O2            3.4279-6 3.1342-6 1.7528-6 1.7767-7
 *O              6.8312-3 6.6766-3 4.5475-3 7.3234-4
 *OH             4.2280-2 4.1527-2 3.3075-2 1.1241-2
 *O2             6.2916-3 6.1721-3 4.3999-3 7.5732-4
 O3              7.561 -9 6.640 -9 2.254 -9 2.493-11

  * THERMODYNAMIC PROPERTIES FITTED TO 20000.K

              THEORETICAL ROCKET PERFORMANCE ASSUMING EQUILIBRIUM

            COMPOSITION DURING EXPANSION FROM FINITE AREA COMBUSTOR

 Pin =   319.1 PSIA
 Ac/At =  2.0000      Pinj/Pinf =  1.052267
 CASE = test___________

             REACTANT                       MOLES         ENERGY      TEMP
                                                         KJ/KG-MOL      K
 FUEL        RP-1                       100.0000000    -24717.700    298.150
 OXIDANT     O2(L)                      100.0000000    -12979.000     90.170

 O/F=    2.12854  %FUEL= 31.963777  R,EQ.RATIO= 1.600000  PHI,EQ.RATIO= 1.600000

                 INJECTOR  COMB END  THROAT     EXIT
 Pinj/P            1.0000   1.1135   1.8346   8.3536
 P, BAR            22.000   19.758   11.992   2.6336
 T, K             3348.28  3322.44  3142.25  2587.87
 RHO, KG/CU M    1.6829 0 1.5243 0 9.8806-1 2.6907-1
 H, KJ/KG         -841.26  -914.79 -1541.28 -3201.10
 U, KJ/KG        -2148.56 -2211.05 -2754.97 -4179.87
 G, KJ/KG        -41595.7 -41420.9 -39850.5 -34751.5
 S, KJ/(KG)(K)    12.1718  12.1917  12.1917  12.1917

 M, (1/n)          21.295   21.311   21.526   21.983
 (dLV/dLP)t      -1.02125 -1.02085 -1.01526 -1.00363
 (dLV/dLT)p        1.3905   1.3859   1.2979   1.0836
 Cp, KJ/(KG)(K)    4.9562   4.9405   4.3849   2.8145
 GAMMAs            1.1508   1.1505   1.1536   1.1823
 SON VEL,M/SEC     1226.6   1221.2   1183.2   1075.7
 MACH NUMBER        0.000    0.314    1.000    2.020

 PERFORMANCE PARAMETERS

 Ae/At                      2.0000   1.0000   2.0000
 CSTAR, M/SEC               1788.3   1788.3   1788.3
 CF                         0.2144   0.6616   1.2148
 Ivac, M/SEC                3763.6   2209.0   2623.0
 Isp, M/SEC                  383.5   1183.2   2172.5

 MOLE FRACTIONS

 *C              1.096 -9 9.278-10 2.678-10 2.207-12
 *CH             5.422-10 4.505-10 1.317-10 1.452-12
 CH2             1.201 -9 1.004 -9 3.596-10 1.110-11
 CH3             2.381 -9 2.022 -9 9.417-10 1.053-10
 CH2OH           3.166-10 2.629-10 1.047-10 5.662-12
 CH3O            9.228-11 7.553-11 2.709-11 9.910-13
 CH4             7.727-10 6.579-10 3.663-10 1.110-10
 CH3OH           2.528-11 2.093-11 9.506-12 1.120-12
 CH3OOH          6.818-16 5.159-16 1.212-16 9.607-19
 *CO             3.9514-1 3.9493-1 3.9430-1 3.8990-1
 *CO2            9.1860-2 9.2431-2 9.8001-2 1.1286-1
 COOH            5.5936-6 5.0778-6 2.9184-6 3.7930-7
 *C2             2.509-14 1.916-14 3.448-15 7.705-18
 C2H             8.734-13 6.796-13 1.636-13 1.482-15
 C2H2,acetylene  1.431-11 1.160-11 4.407-12 3.108-13
 C2H2,vinylidene 9.221-14 7.126-14 1.899-14 3.229-16
 CH2CO,ketene    8.384-11 6.863-11 2.831-11 2.480-12
 O(CH)2O         5.606-13 4.469-13 1.530-13 5.821-15
 HO(CO)2OH       4.133-14 3.303-14 1.175-14 4.359-16
 C2H3,vinyl      8.527-15 6.445-15 1.697-15 3.542-17
 CH3CO,acetyl    8.076-14 6.186-14 1.818-14 5.375-16
 C2H4            3.857-15 2.957-15 1.010-15 7.566-17
 CH3CHO,ethanal  2.197-15 1.670-15 5.395-16 2.946-17
 CH3COOH         7.336-16 5.577-16 1.824-16 9.546-18
 C2O             3.641-10 3.011-10 9.885-11 2.172-12
 C3O2            1.137-12 9.060-13 3.047-13 1.185-14
 *H              3.4586-2 3.4239-2 2.7441-2 9.2650-3
 HCO             1.6616-5 1.5088-5 8.6016-6 1.1848-6
 HCCO            4.384-11 3.554-11 1.169-11 3.278-13
 HO2             1.0455-5 9.5881-6 4.4353-6 1.3940-7
 *H2             1.5433-1 1.5450-1 1.5670-1 1.6888-1
 HCHO,formaldehy 5.6098-7 5.0345-7 3.0683-7 7.0634-8
 HCOOH           9.5874-7 8.6128-7 5.3400-7 1.2029-7
 H2O             2.8856-1 2.8927-1 2.9915-1 3.1452-1
 H2O2            1.9319-6 1.7512-6 8.6534-7 4.4765-8
 *O              3.5917-3 3.4740-3 2.0292-3 1.3944-4
 *OH             2.9292-2 2.8597-2 2.0847-2 4.3256-3
 *O2             2.6026-3 2.5243-3 1.5187-3 1.0573-4
 O3              1.742 -9 1.499 -9 3.769-10 8.344-13

  * THERMODYNAMIC PROPERTIES FITTED TO 20000.K

              THEORETICAL ROCKET PERFORMANCE ASSUMING EQUILIBRIUM

            COMPOSITION DURING EXPANSION FROM FINITE AREA COMBUSTOR

 Pin =   319.1 PSIA
 Ac/At =  2.0000      Pinj/Pinf =  1.052724
 CASE = test___________

             REACTANT                       MOLES         ENERGY      TEMP
                                                         KJ/KG-MOL      K
 FUEL        RP-1                       100.0000000    -24717.700    298.150
 OXIDANT     O2(L)                      100.0000000    -12979.000     90.170

 O/F=    2.00333  %FUEL= 33.296340  R,EQ.RATIO= 1.700000  PHI,EQ.RATIO= 1.700000

                 INJECTOR  COMB END  THROAT     EXIT
 Pinj/P            1.0000   1.1145   1.8457   8.5955
 P, BAR            22.000   19.740   11.919   2.5595
 T, K             3252.47  3225.72  3027.61  2414.10
 RHO, KG/CU M    1.6829 0 1.5235 0 9.8835-1 2.7016-1
 H, KJ/KG         -859.42  -933.60 -1564.46 -3218.44
 U, KJ/KG        -2166.70 -2229.28 -2770.45 -4165.83
 G, KJ/KG        -40916.1 -40727.4 -38914.3 -32999.8
 S, KJ/(KG)(K)    12.3158  12.3364  12.3364  12.3364

 M, (1/n)          20.686   20.700   20.873   21.187
 (dLV/dLP)t      -1.01437 -1.01401 -1.00944 -1.00158
 (dLV/dLT)p        1.2680   1.2633   1.1879   1.0379
 Cp, KJ/(KG)(K)    4.1855   4.1619   3.6447   2.4513
 GAMMAs            1.1629   1.1628   1.1693   1.2061
 SON VEL,M/SEC     1233.0   1227.5   1187.5   1068.9
 MACH NUMBER        0.000    0.314    1.000    2.032

 PERFORMANCE PARAMETERS

 Ae/At                      2.0000   1.0000   2.0000
 CSTAR, M/SEC               1780.6   1780.6   1780.6
 CF                         0.2163   0.6669   1.2199
 Ivac, M/SEC                3749.0   2203.1   2608.3
 Isp, M/SEC                  385.2   1187.5   2172.1

 MOLE FRACTIONS

 *C              7.934-10 6.620-10 1.571-10 4.452-13
 *CH             4.904-10 4.028-10 1.014-10 4.832-13
 CH2             1.495 -9 1.244 -9 4.146-10 8.190-12
 CH3             4.209 -9 3.576 -9 1.698 -9 1.927-10
 CH2OH           3.989-10 3.303-10 1.280-10 5.713-12
 CH3O            1.101-10 8.980-11 3.081-11 8.604-13
 CH4             1.854 -9 1.589 -9 9.767-10 4.547-10
 CH3OH           4.225-11 3.505-11 1.658-11 2.287-12
 CH3OOH          6.285-16 4.718-16 1.010-16 4.864-19
 *CO             4.1588-1 4.1574-1 4.1570-1 4.1026-1
 *CO2            7.6921-2 7.7381-2 8.1569-2 9.4483-2
 COOH            4.2554-6 3.8426-6 2.0600-6 1.9066-7
 *C2             2.513-14 1.893-14 2.862-15 2.347-18
 C2H             1.259-12 9.733-13 2.166-13 1.174-15
 C2H2,acetylene  3.230-11 2.625-11 1.044-11 8.354-13
 C2H2,vinylidene 1.738-13 1.340-13 3.508-14 4.819-16
 CH2CO,ketene    1.524-10 1.250-10 5.370-11 5.399-12
 O(CH)2O         7.150-13 5.691-13 1.926-13 6.722-15
 HO(CO)2OH       3.201-14 2.549-14 8.706-15 2.776-16
 C2H3,vinyl      1.983-14 1.499-14 4.047-15 8.448-17
 CH3CO,acetyl    1.532-13 1.175-13 3.543-14 1.106-15
 C2H4            1.270-14 9.808-15 3.757-15 4.472-16
 CH3CHO,ethanal  5.430-15 4.148-15 1.461-15 1.139-16
 CH3COOH         1.408-15 1.074-15 3.768-16 2.709-17
 OHCH2COOH       1.055-16 7.760-17 2.028-17 4.089-19
 C2O             3.823-10 3.140-10 9.446-11 1.255-12
 C3O2            1.642-12 1.307-12 4.409-13 1.664-14
 *H              2.9730-2 2.9270-2 2.1720-2 4.8369-3
 HCO             1.6313-5 1.4752-5 7.9782-6 8.1695-7
 HCCO            5.722-11 4.620-11 1.456-11 3.056-13
 HO2             4.0461-6 3.6538-6 1.3677-6 1.5244-8
 *H2             1.8569-1 1.8600-1 1.9004-1 2.0636-1
 HCHO,formaldehy 7.0710-7 6.3452-7 3.8810-7 8.8223-8
 HCOOH           9.4079-7 8.4416-7 5.1728-7 1.1126-7
 H2O             2.7067-1 2.7120-1 2.7810-1 2.8266-1
 H2O2            9.5984-7 8.6007-7 3.6340-7 8.7729-9
 *O              1.6341-3 1.5585-3 7.4864-4 1.9295-5
 *OH             1.8523-2 1.7936-2 1.1670-2 1.3697-3
 *O2             9.2791-4 8.8653-4 4.3248-4 1.0917-5
 O3              3.066-10 2.568-10 4.445-11 1.618-14

  * THERMODYNAMIC PROPERTIES FITTED TO 20000.K

              THEORETICAL ROCKET PERFORMANCE ASSUMING EQUILIBRIUM

            COMPOSITION DURING EXPANSION FROM FINITE AREA COMBUSTOR

 Pin =   319.1 PSIA
 Ac/At =  2.0000      Pinj/Pinf =  1.053237
 CASE = test___________

             REACTANT                       MOLES         ENERGY      TEMP
                                                         KJ/KG-MOL      K
 FUEL        RP-1                       100.0000000    -24717.700    298.150
 OXIDANT     O2(L)                      100.0000000    -12979.000     90.170

 O/F=    1.89204  %FUEL= 34.577706  R,EQ.RATIO= 1.800000  PHI,EQ.RATIO= 1.800000

                 INJECTOR  COMB END  THROAT     EXIT
 Pinj/P            1.0000   1.1157   1.8581   8.8307
 P, BAR            22.000   19.719   11.840   2.4913
 T, K             3138.86  3111.15  2895.66  2240.44
 RHO, KG/CU M    1.6939 0 1.5327 0 9.9533-1 2.7335-1
 H, KJ/KG         -876.89  -951.30 -1582.68 -3216.32
 U, KJ/KG        -2175.64 -2237.88 -2772.25 -4127.72
 G, KJ/KG        -39938.9 -39735.3 -37680.3 -31146.0
 S, KJ/(KG)(K)    12.4447  12.4661  12.4661  12.4661

 M, (1/n)          20.095   20.106   20.239   20.439
 (dLV/dLP)t      -1.00945 -1.00916 -1.00568 -1.00065
 (dLV/dLT)p        1.1797   1.1755   1.1157   1.0163
 Cp, KJ/(KG)(K)    3.6054   3.5798   3.1381   2.2720
 GAMMAs            1.1768   1.1771   1.1866   1.2259
 SON VEL,M/SEC     1236.3   1230.6   1188.1   1057.0
 MACH NUMBER        0.000    0.313    1.000    2.046

 PERFORMANCE PARAMETERS

 Ae/At                      2.0000   1.0000   2.0000
 CSTAR, M/SEC               1766.3   1766.3   1766.3
 CF                         0.2184   0.6726   1.2246
 Ivac, M/SEC                3720.8   2189.3   2584.4
 Isp, M/SEC                  385.8   1188.1   2163.1

 MOLE FRACTIONS

 *C              4.827-10 3.952-10 7.351-11 6.428-14
 *CH             3.819-10 3.090-10 6.426-11 1.205-13
 CH2             1.685 -9 1.390 -9 4.192-10 4.958-12
 CH3             7.137 -9 6.064 -9 2.898 -9 3.229-10
 CH2OH           4.703-10 3.878-10 1.438-10 5.141-12
 CH3O            1.214-10 9.842-11 3.171-11 6.544-13
 CH4             4.4817-9 3.8696-9 2.6305-9 1.8876-9
 CH3OH           6.886-11 5.725-11 2.808-11 4.520-12
 CH3OOH          5.151-16 3.828-16 7.278-17 2.057-19
 *CO             4.3307-1 4.3297-1 4.3289-1 4.2504-1
 *CO2            6.4059-2 6.4439-2 6.7824-2 8.0634-2
 COOH            3.0318-6 2.7198-6 1.3445-6 8.7497-8
 *C2             2.108-14 1.560-14 1.881-15 5.021-19
 C2H             1.619-12 1.239-12 2.461-13 7.366-16
 C2H2,acetylene  7.079-11 5.763-11 2.371-11 2.082-12
 C2H2,vinylidene 3.030-13 2.326-13 5.826-14 6.064-16
 CH2CO,ketene    2.708-10 2.226-10 9.888-11 1.127-11
 O(CH)2O         8.663-13 6.878-13 2.280-13 7.223-15
 HO(CO)2OH       2.353-14 1.866-14 6.110-15 1.724-16
 C2H3,vinyl      4.355-14 3.292-14 8.927-15 1.775-16
 CH3CO,acetyl    2.778-13 2.130-13 6.515-14 2.100-15
 C2H4            4.189-14 3.259-14 1.395-14 2.603-15
 CH3CHO,ethanal  1.329-14 1.021-14 3.908-15 4.342-16
 CH3COOH         2.671-15 2.048-15 7.713-16 7.758-17
 OHCH2COOH       1.324-16 9.727-17 2.563-17 5.584-19
 C2O             3.636-10 2.959-10 7.942-11 6.031-13
 C3O2            2.282-12 1.815-12 6.084-13 2.199-14
 *H              2.3722-2 2.3188-2 1.5635-2 2.2043-3
 HCO             1.5031-5 1.3517-5 6.8297-6 5.0394-7
 HCCO            6.921-11 5.556-11 1.641-11 2.469-13
 HO2             1.3399-6 1.1873-6 3.4823-7 1.3047-9
 *H2             2.1895-1 2.1939-1 2.2470-1 2.4266-1
 HCHO,formaldehy 8.6374-7 7.7464-7 4.7244-7 1.0495-7
 HCOOH           8.9384-7 8.0085-7 4.8391-7 1.0039-7
 H2O             2.4855-1 2.4887-1 2.5276-1 2.4908-1
 H2O2            4.2113-7 3.7204-7 1.3123-7 1.4270-9
 *O              6.4406-4 6.0360-4 2.3072-4 2.0928-6
 *OH             1.0692-2 1.0248-2 5.8357-3 3.7351-4
 *O2             2.8669-4 2.6893-4 1.0333-4 9.0180-7
 O3              4.157-11 3.369-11 3.811-12 2.100-16

  * THERMODYNAMIC PROPERTIES FITTED TO 20000.K

              THEORETICAL ROCKET PERFORMANCE ASSUMING EQUILIBRIUM

            COMPOSITION DURING EXPANSION FROM FINITE AREA COMBUSTOR

 Pin =   319.1 PSIA
 Ac/At =  2.0000      Pinj/Pinf =  1.053774
 CASE = test___________

             REACTANT                       MOLES         ENERGY      TEMP
                                                         KJ/KG-MOL      K
 FUEL        RP-1                       100.0000000    -24717.700    298.150
 OXIDANT     O2(L)                      100.0000000    -12979.000     90.170

 O/F=    1.79246  %FUEL= 35.810771  R,EQ.RATIO= 1.900000  PHI,EQ.RATIO= 1.900000

                 INJECTOR  COMB END  THROAT     EXIT
 Pinj/P            1.0000   1.1169   1.8707   9.0447
 P, BAR            22.000   19.697   11.761   2.4324
 T, K             3011.99  2983.43  2753.05  2075.19
 RHO, KG/CU M    1.7153 0 1.5512 0 1.0087 0 2.7844-1
 H, KJ/KG         -893.69  -967.92 -1595.87 -3197.21
 U, KJ/KG        -2176.27 -2237.76 -2761.84 -4070.79
 G, KJ/KG        -38720.7 -38502.7 -36232.2 -29305.4
 S, KJ/(KG)(K)    12.5588  12.5811  12.5811  12.5811

 M, (1/n)          19.526   19.535   19.632   19.751
 (dLV/dLP)t      -1.00608 -1.00584 -1.00330 -1.00025
 (dLV/dLT)p        1.1183   1.1147   1.0694   1.0067
 Cp, KJ/(KG)(K)    3.1861   3.1614   2.7989   2.1890
 GAMMAs            1.1920   1.1925   1.2045   1.2417
 SON VEL,M/SEC     1236.5   1230.6   1185.1   1041.5
 MACH NUMBER        0.000    0.313    1.000    2.061

 PERFORMANCE PARAMETERS

 Ae/At                      2.0000   1.0000   2.0000
 CSTAR, M/SEC               1746.6   1746.6   1746.6
 CF                         0.2206   0.6785   1.2289
 Ivac, M/SEC                3681.1   2169.0   2553.4
 Isp, M/SEC                  385.3   1185.1   2146.4

 MOLE FRACTIONS

 *C              2.472-10 1.977-10 2.772-11 7.124-15
 *CH             2.562-10 2.034-10 3.381-11 2.398-14
 CH2             1.714 -9 1.399 -9 3.733-10 2.574-12
 CH3             1.156 -8 9.817 -9 4.674 -9 5.077-10
 CH2OH           5.184-10 4.253-10 1.492-10 4.249-12
 CH3O            1.236-10 9.949-11 2.971-11 4.515-13
 CH4             1.0867-8 9.4578-9 7.1307-9 8.0071-9
 CH3OH           1.092-10 9.098-11 4.621-11 8.777-12
 CH3OOH          3.764-16 2.763-16 4.593-17 7.611-20
 *CO             4.4695-1 4.4685-1 4.4633-1 4.3593-1
 *CO2            5.3330-2 5.3663-2 5.6682-2 7.0148-2
 COOH            2.0330-6 1.8100-6 8.1907-7 3.7519-8
 *C2             1.483-14 1.073-14 9.893-16 8.150-20
 C2H             1.853-12 1.401-12 2.415-13 3.869-16
 C2H2,acetylene  1.500-10 1.223-10 5.153-11 4.938-12
 C2H2,vinylidene 4.863-13 3.711-13 8.713-14 6.723-16
 CH2CO,ketene    4.699-10 3.868-10 1.771-10 2.299-11
 O(CH)2O         9.999-13 7.914-13 2.554-13 7.419-15
 HO(CO)2OH       1.658-14 1.309-14 4.124-15 1.064-16
 C2H3,vinyl      8.990-14 6.783-14 1.821-14 3.410-16
 CH3CO,acetyl    4.809-13 3.685-13 1.134-13 3.797-15
 C2H4            1.374-13 1.077-13 5.143-14 1.518-14
 CH3CHO,ethanal  3.211-14 2.480-14 1.033-14 1.663-15
 CH3COOH         5.012-15 3.862-15 1.569-15 2.277-16
 OHCH2COOH       1.593-16 1.170-16 3.115-17 7.590-19
 C2H5            1.448-16 1.049-16 3.149-17 1.753-18
 C2O             3.140-10 2.526-10 5.925-11 2.520-13
 C3O2            3.066-12 2.433-12 8.065-13 2.813-14
 *H              1.7575-2 1.7029-2 1.0278-2 9.0120-4
 HCO             1.3016-5 1.1627-5 5.4249-6 2.8542-7
 HCCO            7.763-11 6.188-11 1.686-11 1.795-13
 HO2             3.827 -7 3.318 -7 7.443 -8 9.174-11
 *H2             2.5247-1 2.5299-1 2.5880-1 2.7683-1
 HCHO,formaldehy 1.0226-6 9.1621-7 5.5497-7 1.2078-7
 HCOOH           8.2519-7 7.3818-7 4.4014-7 8.9505-8
 H2O             2.2370-1 2.2383-1 2.2519-1 2.1610-1
 H2O2            1.642 -7 1.427 -7 4.130 -8 2.002-10
 *O              2.2117-4 2.0307-4 6.0177-5 1.8654-7
 *OH             5.6526-3 5.3534-3 2.6281-3 9.0288-5
 *O2             7.7439-5 7.1122-5 2.1055-5 6.2195-8
 O3              4.418-12 3.448-12 2.451-13 1.978-18

  * THERMODYNAMIC PROPERTIES FITTED TO 20000.K

              THEORETICAL ROCKET PERFORMANCE ASSUMING EQUILIBRIUM

            COMPOSITION DURING EXPANSION FROM FINITE AREA COMBUSTOR

 Pin =   319.1 PSIA
 Ac/At =  2.0000      Pinj/Pinf =  1.054311
 CASE = test___________

             REACTANT                       MOLES         ENERGY      TEMP
                                                         KJ/KG-MOL      K
 FUEL        RP-1                       100.0000000    -24717.700    298.150
 OXIDANT     O2(L)                      100.0000000    -12979.000     90.170

 O/F=    1.70283  %FUEL= 36.998214  R,EQ.RATIO= 2.000000  PHI,EQ.RATIO= 2.000000

                 INJECTOR  COMB END  THROAT     EXIT
 Pinj/P            1.0000   1.1181   1.8829   9.2308
 P, BAR            22.000   19.676   11.684   2.3833
 T, K             2876.22  2846.97  2605.29  1921.65
 RHO, KG/CU M    1.7464 0 1.5785 0 1.0279 0 2.8526-1
 H, KJ/KG         -909.88  -983.50 -1604.31 -3164.10
 U, KJ/KG        -2169.64 -2230.02 -2740.99 -3999.60
 G, KJ/KG        -37318.6 -37088.0 -34643.8 -27534.0
 S, KJ/(KG)(K)    12.6585  12.6817  12.6817  12.6817

 M, (1/n)          18.983   18.990   19.057   19.123
 (dLV/dLP)t      -1.00379 -1.00361 -1.00183 -1.00009
 (dLV/dLT)p        1.0760   1.0731   1.0401   1.0025
 Cp, KJ/(KG)(K)    2.8850   2.8625   2.5734   2.1554
 GAMMAs            1.2077   1.2085   1.2219   1.2542
 SON VEL,M/SEC     1233.4   1227.4   1178.5   1023.7
 MACH NUMBER        0.000    0.313    1.000    2.074

 PERFORMANCE PARAMETERS

 Ae/At                      2.0000   1.0000   2.0000
 CSTAR, M/SEC               1722.5   1722.5   1722.5
 CF                         0.2228   0.6842   1.2327
 Ivac, M/SEC                3632.2   2143.0   2516.8
 Isp, M/SEC                  383.7   1178.5   2123.3

 MOLE FRACTIONS

 *C              1.070-10 8.327-11 8.531-12 6.329-16
 *CH             1.486-10 1.155-10 1.494-11 3.959-15
 CH2             1.580 -9 1.274 -9 2.955-10 1.183-12
 CH3             1.795 -8 1.522 -8 7.184 -9 7.654-10
 CH2OH           5.363-10 4.374-10 1.443-10 3.294-12
 CH3O            1.167-10 9.321-11 2.561-11 2.895-13
 CH4             2.6524-8 2.3289-8 1.9609-8 3.5168-8
 CH3OH           1.692-10 1.413-10 7.450-11 1.699-11
 CH3OOH          2.467-16 1.787-16 2.571-17 2.532-20
 *CO             4.5800-1 4.5787-1 4.5675-1 4.4424-1
 *CO2            4.4514-2 4.4822-2 4.7725-2 6.2001-2
 COOH            1.2884-6 1.1375-6 4.6883-7 1.5197-8
 *C2             8.786-15 6.192-15 4.226-16 1.058-20
 C2H             1.897-12 1.414-12 2.073-13 1.774-16
 C2H2,acetylene  3.084-10 2.517-10 1.082-10 1.145-11
 C2H2,vinylidene 7.219-13 5.468-13 1.187-13 6.806-16
 CH2CO,ketene    7.998-10 6.595-10 3.111-10 4.672-11
 O(CH)2O         1.106-12 8.723-13 2.737-13 7.422-15
 HO(CO)2OH       1.128-14 8.871-15 2.705-15 6.572-17
 C2H3,vinyl      1.752-13 1.319-13 3.476-14 6.195-16
 CH3CO,acetyl    7.987-13 6.116-13 1.890-13 6.699-15
 C2H4            4.500-13 3.560-13 1.903-13 9.088-14
 CH3CHO,ethanal  7.698-14 5.984-14 2.724-14 6.525-15
 CH3COOH         9.361-15 7.255-15 3.210-15 6.946-16
 OHCH2COOH       1.854-16 1.362-16 3.689-17 1.043-18
 C2H5            4.461-16 3.249-16 1.050-16 8.167-18
 C2H6            1.152-16 8.650-17 4.776-17 4.833-17
 C2O             2.475-10 1.965-10 3.965-11 9.437-14
 C3H3,2-propynl  1.172-16 8.209-17 1.868-17 3.479-19
 C3O2            4.005-12 3.173-12 1.038-12 3.552-14
 *H              1.2110-2 1.1614-2 6.2008-3 3.3618-4
 HCO             1.0626-5 9.4178-6 4.0242-6 1.5089-7
 HCCO            8.115-11 6.414-11 1.596-11 1.208-13
 HO2             9.471 -8 8.008 -8 1.347 -8 5.411-12
 *H2             2.8491-1 2.8545-1 2.9111-1 3.0863-1
 HCHO,formaldehy 1.1768-6 1.0533-6 6.3295-7 1.3606-7
 HCOOH           7.4333-7 6.6398-7 3.9170-7 7.9376-8
 H2O             1.9762-1 1.9759-1 1.9712-1 1.8477-1
 H2O2            5.712 -8 4.873 -8 1.142 -8 2.461-11
 *O              6.6382-5 5.9537-5 1.3381-5 1.3981-8
 *OH             2.7434-3 2.5629-3 1.0714-3 1.9616-5
 *O2             1.8356-5 1.6462-5 3.6838-6 3.6413-9
 O3              3.712-13 2.777-13 1.201-14 1.397-20

  * THERMODYNAMIC PROPERTIES FITTED TO 20000.K

              THEORETICAL ROCKET PERFORMANCE ASSUMING EQUILIBRIUM

            COMPOSITION DURING EXPANSION FROM FINITE AREA COMBUSTOR

 Pin =   319.1 PSIA
 Ac/At =  2.0000      Pinj/Pinf =  1.054823
 CASE = test___________

             REACTANT                       MOLES         ENERGY      TEMP
                                                         KJ/KG-MOL      K
 FUEL        RP-1                       100.0000000    -24717.700    298.150
 OXIDANT     O2(L)                      100.0000000    -12979.000     90.170

 O/F=    1.62175  %FUEL= 38.142523  R,EQ.RATIO= 2.100000  PHI,EQ.RATIO= 2.100000

                 INJECTOR  COMB END  THROAT     EXIT
 Pinj/P            1.0000   1.1193   1.8942   9.3904
 P, BAR            22.000   19.655   11.614   2.3428
 T, K             2735.15  2705.46  2456.66  1780.18
 RHO, KG/CU M    1.7867 0 1.6142 0 1.0529 0 2.9365-1
 H, KJ/KG         -925.47  -998.10 -1608.30 -3120.14
 U, KJ/KG        -2156.79 -2215.74 -2711.38 -3917.97
 G, KJ/KG        -35783.1 -35542.3 -32975.7 -25850.1
 S, KJ/(KG)(K)    12.7443  12.7683  12.7683  12.7683

 M, (1/n)          18.469   18.474   18.517   18.552
 (dLV/dLP)t      -1.00227 -1.00214 -1.00097 -1.00003
 (dLV/dLT)p        1.0471   1.0449   1.0221   1.0009
 Cp, KJ/(KG)(K)    2.6698   2.6502   2.4272   2.1459
 GAMMAs            1.2234   1.2244   1.2381   1.2646
 SON VEL,M/SEC     1227.4   1221.0   1168.6   1004.4
 MACH NUMBER        0.000    0.312    1.000    2.086

 PERFORMANCE PARAMETERS

 Ae/At                      2.0000   1.0000   2.0000
 CSTAR, M/SEC               1695.0   1695.0   1695.0
 CF                         0.2249   0.6894   1.2360
 Ivac, M/SEC                3575.9   2112.5   2475.9
 Isp, M/SEC                  381.1   1168.6   2095.1

 MOLE FRACTIONS

 *C              3.924-11 2.963-11 2.167-12 4.581-17
 *CH             7.485-11 5.676-11 5.616-12 5.519-16
 CH2             1.326 -9 1.054 -9 2.106-10 4.898-13
 CH3             2.6900-8 2.2770-8 1.0648-8 1.1243-9
 CH2OH           5.236-10 4.242-10 1.312-10 2.421-12
 CH3O            1.029-10 8.148-11 2.053-11 1.745-13
 CH4             6.5822-8 5.8376-8 5.5410-8 1.6245-7
 CH3OH           2.580-10 2.160-10 1.189-10 3.316-11
 CH3OOH          1.460-16 1.042-16 1.292-17 7.645-21
 *CO             4.6676-1 4.6660-1 4.6489-1 4.5085-1
 *CO2            3.7272-2 3.7568-2 4.0466-2 5.5451-2
 COOH            7.7289-7 6.7622-7 2.5305-7 5.8191-9
 *C2             4.415-15 3.020-15 1.491-16 1.124-21
 C2H             1.752-12 1.285-12 1.583-13 7.273-17
 C2H2,acetylene  6.219-10 5.080-10 2.232-10 2.648-11
 C2H2,vinylidene 1.001-12 7.513-13 1.499-13 6.444-16
 CH2CO,ketene    1.347 -9 1.113 -9 5.428-10 9.599-11
 O(CH)2O         1.180-12 9.276-13 2.836-13 7.306-15
 HO(CO)2OH       7.446-15 5.836-15 1.734-15 4.054-17
 C2H3,vinyl      3.261-13 2.447-13 6.324-14 1.091-15
 CH3CO,acetyl    1.286-12 9.842-13 3.064-13 1.174-14
 C2H4            1.492-12 1.191-12 7.194-13 5.718-13
 CH3CHO,ethanal  1.852-13 1.451-13 7.285-14 2.671-14
 CH3COOH         1.758-14 1.372-14 6.688-15 2.232-15
 OHCH2COOH       2.107-16 1.549-16 4.311-17 1.460-18
 C2H5            1.354-15 9.915-16 3.474-16 3.889-17
 C2H6            5.663-16 4.322-16 2.904-16 6.603-16
 C2O             1.791-10 1.400-10 2.408-11 3.213-14
 C3H3,2-propynl  3.441-16 2.415-16 5.691-17 1.282-18
 C3O2            5.131-12 4.056-12 1.312-12 4.488-14
 *H              7.7705-3 7.3664-3 3.4494-3 1.1513-4
 HCO             8.2015-6 7.2060-6 2.8046-6 7.4968-8
 HCCO            7.960-11 6.231-11 1.408-11 7.635-14
 HO2             2.026 -8 1.667 -8 2.067 -9 2.668-13
 *H2             3.1544-1 3.1596-1 3.2110-1 3.3808-1
 HCHO,formaldehy 1.3228-6 1.1825-6 7.0575-7 1.5116-7
 HCOOH           6.5561-7 5.8491-7 3.4269-7 7.0154-8
 H2O             1.7150-1 1.7136-1 1.6970-1 1.5550-1
 H2O2            1.771 -8 1.481 -8 2.780 -9 2.645-12
 *O              1.738 -5 1.519 -5 2.543 -6 8.818-10
 *OH             1.2215-3 1.1239-3 3.9616-4 3.8305-6
 *O2             3.805 -6 3.323 -6 5.531 -7 1.799-10
 O3              2.459-14 1.754-14 4.491-16 7.331-23

  * THERMODYNAMIC PROPERTIES FITTED TO 20000.K

              THEORETICAL ROCKET PERFORMANCE ASSUMING EQUILIBRIUM

            COMPOSITION DURING EXPANSION FROM FINITE AREA COMBUSTOR

 Pin =   319.1 PSIA
 Ac/At =  2.0000      Pinj/Pinf =  1.055294
 CASE = test___________

             REACTANT                       MOLES         ENERGY      TEMP
                                                         KJ/KG-MOL      K
 FUEL        RP-1                       100.0000000    -24717.700    298.150
 OXIDANT     O2(L)                      100.0000000    -12979.000     90.170

 O/F=    1.54803  %FUEL= 39.246004  R,EQ.RATIO= 2.200000  PHI,EQ.RATIO= 2.200000

                 INJECTOR  COMB END  THROAT     EXIT
 Pinj/P            1.0000   1.1204   1.9042   9.5284
 P, BAR            22.000   19.636   11.553   2.3089
 T, K             2591.77  2561.91  2310.32  1649.83
 RHO, KG/CU M    1.8361 0 1.6582 0 1.0834 0 3.0349-1
 H, KJ/KG         -940.51 -1011.78 -1608.32 -3068.09
 U, KJ/KG        -2138.70 -2195.96 -2674.66 -3828.86
 G, KJ/KG        -34157.5 -33909.9 -31275.7 -24253.9
 S, KJ/(KG)(K)    12.8164  12.8412  12.8412  12.8412

 M, (1/n)          17.985   17.988   18.014   18.031
 (dLV/dLP)t      -1.00129 -1.00121 -1.00048 -1.00001
 (dLV/dLT)p        1.0280   1.0264   1.0115   1.0003
 Cp, KJ/(KG)(K)    2.5191   2.5027   2.3367   2.1473
 GAMMAs            1.2386   1.2397   1.2525   1.2737
 SON VEL,M/SEC     1218.2   1211.6   1155.7    984.4
 MACH NUMBER        0.000    0.312    1.000    2.096

 PERFORMANCE PARAMETERS

 Ae/At                      2.0000   1.0000   2.0000
 CSTAR, M/SEC               1665.0   1665.0   1665.0
 CF                         0.2268   0.6941   1.2389
 Ivac, M/SEC                3514.1   2078.4   2431.6
 Isp, M/SEC                  377.5   1155.7   2062.8

 MOLE FRACTIONS

 *C              1.224-11 8.934-12 4.592-13 2.691-18
 *CH             3.291-11 2.430-11 1.817-12 6.495-17
 CH2             1.022 -9 7.999-10 1.367-10 1.837-13
 CH3             3.9288-8 3.3208-8 1.5410-8 1.6299-9
 CH2OH           4.853-10 3.905-10 1.133-10 1.695-12
 CH3O            8.521-11 6.689-11 1.546-11 9.930-14
 CH4             1.6831-7 1.5099-7 1.6318-7 8.0394-7
 CH3OH           3.906-10 3.283-10 1.899-10 6.584-11
 *CO             4.7376-1 4.7356-1 4.7138-1 4.5636-1
 *CO2            3.1260-2 3.1550-2 3.4466-2 4.9961-2
 COOH            4.3860-7 3.8006-7 1.2891-7 2.0925-9
 *C2             1.896-15 1.255-15 4.415-17 9.820-23
 C2H             1.476-12 1.063-12 1.094-13 2.695-17
 C2H2,acetylene  1.247 -9 1.020 -9 4.595-10 6.240-11
 C2H2,vinylidene 1.311-12 9.756-13 1.785-13 5.796-16
 CH2CO,ketene    2.267 -9 1.878 -9 9.524-10 2.022-10
 O(CH)2O         1.223-12 9.586-13 2.868-13 7.118-15
 HO(CO)2OH       4.774-15 3.730-15 1.088-15 2.480-17
 C2H3,vinyl      5.883-13 4.402-13 1.118-13 1.899-15
 CH3CO,acetyl    2.032-12 1.555-12 4.903-13 2.076-14
 C2H4            5.094-12 4.114-12 2.835-12 3.884-12
 C2H4O,ethylen-o 1.739-16 1.288-16 3.947-17 2.029-18
 CH3CHO,ethanal  4.540-13 3.587-13 2.008-13 1.163-13
 CH3COOH         3.359-14 2.645-14 1.437-14 7.660-15
 OHCH2COOH       2.356-16 1.735-16 5.018-17 2.095-18
 C2H5            4.126-15 3.043-15 1.166-15 1.944-16
 C2H6            2.937-15 2.283-15 1.897-15 1.017-14
 C2O             1.196-10 9.203-11 1.341-11 9.982-15
 C3H3,2-propynl  1.005-15 7.068-16 1.736-16 4.877-18
 C3H4,propyne    1.498-16 1.079-16 4.384-17 1.314-17
 C3O2            6.505-12 5.134-12 1.648-12 5.731-14
 *H              4.6468-3 4.3493-3 1.7761-3 3.6119-5
 HCO             5.9992-6 5.2215-6 1.8455-6 3.5001-8
 HCCO            7.383-11 5.722-11 1.171-11 4.569-14
 HO2             3.718 -9 2.968 -9 2.683-10 1.076-14
 *H2             3.4368-1 3.4415-1 3.4865-1 3.6524-1
 HCHO,formaldehy 1.4591-6 1.3032-6 7.7412-7 1.6638-7
 HCOOH           5.6728-7 5.0567-7 2.9545-7 6.1729-8
 H2O             1.4614-1 1.4593-1 1.4360-1 1.2840-1
 H2O2            4.871 -9 3.985 -9 5.948-10 2.443-13
 *O              3.949 -6 3.352 -6 4.127 -7 4.604-11
 *OH             4.9731-4 4.5000-4 1.3278-4 6.6537-7
 *O2             6.835 -7 5.799 -7 7.088 -8 7.329-12
 O3              1.267-15 8.591-16 1.275-17 2.747-25

  * THERMODYNAMIC PROPERTIES FITTED TO 20000.K

              THEORETICAL ROCKET PERFORMANCE ASSUMING EQUILIBRIUM

            COMPOSITION DURING EXPANSION FROM FINITE AREA COMBUSTOR

 Pin =   319.1 PSIA
 Ac/At =  2.0000      Pinj/Pinf =  1.055714
 CASE = test___________

             REACTANT                       MOLES         ENERGY      TEMP
                                                         KJ/KG-MOL      K
 FUEL        RP-1                       100.0000000    -24717.700    298.150
 OXIDANT     O2(L)                      100.0000000    -12979.000     90.170

 O/F=    1.48072  %FUEL= 40.310805  R,EQ.RATIO= 2.300000  PHI,EQ.RATIO= 2.300000

                 INJECTOR  COMB END  THROAT     EXIT
 Pinj/P            1.0000   1.1213   1.9130   9.6512
 P, BAR            22.000   19.620   11.500   2.2795
 T, K             2448.51  2418.80  2168.35  1529.25
 RHO, KG/CU M    1.8945 0 1.7104 0 1.1193 0 3.1472-1
 H, KJ/KG         -955.02 -1024.61 -1604.97 -3010.19
 U, KJ/KG        -2116.31 -2171.68 -2632.42 -3734.48
 G, KJ/KG        -32479.5 -32228.8 -29578.2 -22738.5
 S, KJ/(KG)(K)    12.8750  12.9007  12.9007  12.9007

 M, (1/n)          17.531   17.533   17.547   17.555
 (dLV/dLP)t      -1.00070 -1.00064 -1.00023 -1.00002
 (dLV/dLT)p        1.0158   1.0147   1.0057   1.0003
 Cp, KJ/(KG)(K)    2.4173   2.4041   2.2840   2.1535
 GAMMAs            1.2528   1.2539   1.2652   1.2821
 SON VEL,M/SEC     1206.2   1199.3   1140.1    963.6
 MACH NUMBER        0.000    0.311    1.000    2.104

 PERFORMANCE PARAMETERS

 Ae/At                      2.0000   1.0000   2.0000
 CSTAR, M/SEC               1632.9   1632.9   1632.9
 CF                         0.2285   0.6982   1.2416
 Ivac, M/SEC                3447.8   2041.3   2384.6
 Isp, M/SEC                  373.1   1140.1   2027.4

 MOLE FRACTIONS

 *C              3.251-12 2.290-12 8.181-14 1.259-19
 *CH             1.270-11 9.106-12 5.106-13 6.378-18
 CH2             7.277-10 5.605-10 8.175-11 6.234-14
 CH3             5.6546-8 4.7737-8 2.2049-8 2.3576-9
 CH2OH           4.293-10 3.430-10 9.339-11 1.130-12
 CH3O            6.669-11 5.187-11 1.102-11 5.325-14
 CH4             4.5003-7 4.0893-7 5.0810-7 4.3564-6
 CH3OH           5.921-10 4.999-10 3.057-10 1.343-10
 *CO             4.7945-1 4.7922-1 4.7674-1 4.6120-1
 *CO2            2.6176-2 2.6460-2 2.9367-2 4.5127-2
 COOH            2.348 -7 2.014 -7 6.184 -8 6.981-10
 *C2             7.021-16 4.489-16 1.114-17 6.984-24
 C2H             1.149-12 8.119-13 6.957-14 9.060-18
 C2H2,acetylene  2.527 -9 2.072 -9 9.619-10 1.528-10
 C2H2,vinylidene 1.649-12 1.216-12 2.040-13 5.012-16
 CH2CO,ketene    3.858 -9 3.208 -9 1.701 -9 4.428-10
 O(CH)2O         1.240-12 9.689-13 2.849-13 6.883-15
 HO(CO)2OH       2.963-15 2.310-15 6.650-16 1.487-17
 C2H3,vinyl      1.047-12 7.813-13 1.959-13 3.327-15
 CH3CO,acetyl    3.193-12 2.445-12 7.859-13 3.751-14
 C2H4            1.830-11 1.497-11 1.190-11 2.937-11
 C2H4O,ethylen-o 3.198-16 2.378-16 7.640-17 4.960-18
 CH3CHO,ethanal  1.151-12 9.191-13 5.796-13 5.508-13
 CH3COOH         6.603-14 5.255-14 3.222-14 2.851-14
 OHCH2COOH       2.609-16 1.928-16 5.850-17 3.086-18
 C2H5            1.291-14 9.600-15 4.069-15 1.050-15
 C2H6            1.647-14 1.307-14 1.365-14 1.837-13
 C2H5OH          1.159-16 8.609-17 4.778-17 4.904-17
 C2O             7.422-11 5.613-11 6.909-12 2.819-15
 C3H3,2-propynl  2.990-15 2.110-15 5.447-16 1.976-17
 C3H4,allene     3.038-16 2.206-16 9.929-17 4.668-17
 C3H4,propyne    6.919-16 5.047-16 2.369-16 1.312-16
 C3O2            8.239-12 6.494-12 2.079-12 7.467-14
 *H              2.5906-3 2.3916-3 8.4835-4 1.0294-5
 HCO             4.1663-6 3.5902-6 1.1501-6 1.5280-8
 HCCO            6.530-11 5.008-11 9.294-12 2.596-14
 HO2             5.786-10 4.474-10 2.916-11 3.419-16
 *H2             3.6957-1 3.6998-1 3.7388-1 3.9018-1
 HCHO,formaldehy 1.5868-6 1.4162-6 8.3943-7 1.8198-7
 HCOOH           4.8159-7 4.2910-7 2.5101-7 5.3898-8
 H2O             1.2203-1 1.2178-1 1.1912-1 1.0347-1
 H2O2            1.177 -9 9.408-10 1.109-10 1.883-14
 *O              7.721 -7 6.354 -7 5.691 -8 1.932-12
 *OH             1.8415-4 1.6366-4 4.0182-5 1.0087-7
 *O2             1.050 -7 8.636 -8 7.668 -9 2.372-13

  * THERMODYNAMIC PROPERTIES FITTED TO 20000.K

              THEORETICAL ROCKET PERFORMANCE ASSUMING EQUILIBRIUM

            COMPOSITION DURING EXPANSION FROM FINITE AREA COMBUSTOR

 Pin =   319.1 PSIA
 Ac/At =  2.0000      Pinj/Pinf =  1.056082
 CASE = test___________

             REACTANT                       MOLES         ENERGY      TEMP
                                                         KJ/KG-MOL      K
 FUEL        RP-1                       100.0000000    -24717.700    298.150
 OXIDANT     O2(L)                      100.0000000    -12979.000     90.170

 O/F=    1.41903  %FUEL= 41.338925  R,EQ.RATIO= 2.400000  PHI,EQ.RATIO= 2.400000

                 INJECTOR  COMB END  THROAT     EXIT
 Pinj/P            1.0000   1.1222   1.9206   9.7648
 P, BAR            22.000   19.605   11.455   2.2530
 T, K             2307.32  2278.06  2031.91  1417.18
 RHO, KG/CU M    1.9617 0 1.7707 0 1.1605 0 3.2733-1
 H, KJ/KG         -969.04 -1036.67 -1598.90 -2948.10
 U, KJ/KG        -2090.50 -2143.84 -2586.00 -3636.40
 G, KJ/KG        -30780.3 -30530.3 -27905.6 -21296.1
 S, KJ/(KG)(K)    12.9203  12.9468  12.9468  12.9468

 M, (1/n)          17.106   17.108   17.115   17.119
 (dLV/dLP)t      -1.00036 -1.00033 -1.00010 -1.00011
 (dLV/dLT)p        1.0085   1.0078   1.0027   1.0011
 Cp, KJ/(KG)(K)    2.3519   2.3416   2.2553   2.1641
 GAMMAs            1.2655   1.2666   1.2762   1.2900
 SON VEL,M/SEC     1191.3   1184.2   1122.4    942.3
 MACH NUMBER        0.000    0.311    1.000    2.111

 PERFORMANCE PARAMETERS

 Ae/At                      2.0000   1.0000   2.0000
 CSTAR, M/SEC               1599.4   1599.4   1599.4
 CF                         0.2299   0.7017   1.2439
 Ivac, M/SEC                3378.2   2001.8   2335.5
 Isp, M/SEC                  367.8   1122.4   1989.5

 MOLE FRACTIONS

 *C              7.388-13 5.009-13 1.229-14 4.581-21
 *CH             4.320-12 3.006-12 1.253-13 5.135-19
 CH2             4.833-10 3.660-10 4.541-11 1.906-14
 CH3             8.1164-8 6.8462-8 3.1569-8 3.4414-9
 CH2OH           3.640-10 2.887-10 7.387-11 7.153-13
 CH3O            4.955-11 3.818-11 7.458-12 2.678-14
 CH4             1.2782-6 1.1782-6 1.6992-6 2.6507-5
 CH3OH           9.055-10 7.686-10 5.000-10 2.838-10
 *CO             4.8420-1 4.8396-1 4.8135-1 4.6573-1
 *CO2            2.1765-2 2.2039-2 2.4885-2 4.0603-2
 COOH            1.179 -7 1.001 -7 2.776 -8 2.125-10
 *C2             2.268-16 1.397-16 2.424-18 3.986-25
 C2H             8.380-13 5.809-13 4.137-14 2.770-18
 C2H2,acetylene  5.279 -9 4.339 -9 2.088 -9 3.977-10
 C2H2,vinylidene 2.026-12 1.479-12 2.281-13 4.217-16
 CH2CO,ketene    6.7278-9 5.6176-9 3.1338-9 1.0246-9
 O(CH)2O         1.235-12 9.631-13 2.794-13 6.617-15
 HO(CO)2OH       1.766-15 1.374-15 3.924-16 8.606-18
 C2H3,vinyl      1.874-12 1.396-12 3.472-13 5.987-15
 CH3CO,acetyl    5.061-12 3.881-12 1.280-12 7.027-14
 C2H4            7.083-11 5.877-11 5.453-11 2.561-10
 C2H4O,ethylen-o 5.990-16 4.473-16 1.520-16 1.283-17
 CH3CHO,ethanal  3.072-12 2.481-12 1.781-12 2.906-12
 CH3COOH         1.350-13 1.087-13 7.609-14 1.169-13
 OHCH2COOH       2.869-16 2.129-16 6.843-17 4.673-18
 C2H5            4.252-14 3.192-14 1.512-14 6.320-15
 C2H6            1.027-13 8.343-14 1.113-13 4.068-12
 C2H5OH          4.043-16 3.050-16 2.015-16 4.254-16
 C2O             4.309-11 3.201-11 3.318-12 7.193-16
 C3H3,2-propynl  9.335-15 6.615-15 1.812-15 8.836-17
 C3H4,allene     1.499-15 1.104-15 5.791-16 5.286-16
 C3H4,propyne    3.490-15 2.582-15 1.419-15 1.551-15
 C3H6,propylene  4.568-17 3.374-17 3.225-17 5.891-16
 C3O2            1.054-11 8.301-12 2.663-12 1.003-13
 *H              1.3460-3 1.2246-3 3.7572-4 2.6334-6
 HCO             2.7498-6 2.3449-6 6.7941-7 6.1890-9
 HCCO            5.561-11 4.219-11 7.097-12 1.402-14
 HO2             7.512-11 5.613-11 2.607-12 8.161-18
 *H2             3.9322-1 3.9357-1 3.9699-1 4.1290-1
 HCHO,formaldehy 1.7079-6 1.5236-6 9.0319-7 1.9818-7
 HCOOH           4.0015-7 3.5652-7 2.0952-7 4.6435-8
 H2O             9.9398-2 9.9139-2 9.6391-2 8.0738-2
 H2O2            2.466-10 1.922-10 1.777-11 1.166-15
 *O              1.285 -7 1.023 -7 6.591 -9 6.264-14
 *OH             6.1514-5 5.3633-5 1.0883-5 1.3010-8
 *O2             1.355 -8 1.078 -8 6.869-10 5.814-15

  * THERMODYNAMIC PROPERTIES FITTED TO 20000.K

              THEORETICAL ROCKET PERFORMANCE ASSUMING EQUILIBRIUM

            COMPOSITION DURING EXPANSION FROM FINITE AREA COMBUSTOR

 Pin =   319.1 PSIA
 Ac/At =  2.0000      Pinj/Pinf =  1.056408
 CASE = test___________

             REACTANT                       MOLES         ENERGY      TEMP
                                                         KJ/KG-MOL      K
 FUEL        RP-1                       100.0000000    -24717.700    298.150
 OXIDANT     O2(L)                      100.0000000    -12979.000     90.170

 O/F=    1.36227  %FUEL= 42.332226  R,EQ.RATIO= 2.500000  PHI,EQ.RATIO= 2.500000

                 INJECTOR  COMB END  THROAT     EXIT
 Pinj/P            1.0000   1.1229   1.9275   9.8695
 P, BAR            22.000   19.592   11.414   2.2291
 T, K             2169.60  2141.02  1901.39  1313.30
 RHO, KG/CU M    2.0381 0 1.8393 0 1.2068 0 3.4138-1
 H, KJ/KG         -982.58 -1048.04 -1590.77 -2882.72
 U, KJ/KG        -2062.04 -2113.24 -2536.54 -3535.69
 G, KJ/KG        -29084.0 -28837.7 -26270.1 -19928.9
 S, KJ/(KG)(K)    12.9523  12.9796  12.9796  12.9796

 M, (1/n)          16.711   16.712   16.716   16.723
 (dLV/dLP)t      -1.00019 -1.00017 -1.00007 -1.00073
 (dLV/dLT)p        1.0043   1.0039   1.0013   1.0081
 Cp, KJ/(KG)(K)    2.3121   2.3042   2.2408   2.2070
 GAMMAs            1.2769   1.2779   1.2862   1.2957
 SON VEL,M/SEC     1174.0   1166.7   1102.9    919.8
 MACH NUMBER        0.000    0.310    1.000    2.119

 PERFORMANCE PARAMETERS

 Ae/At                      2.0000   1.0000   2.0000
 CSTAR, M/SEC               1564.6   1564.6   1564.6
 CF                         0.2313   0.7049   1.2460
 Ivac, M/SEC                3305.7   1960.4   2284.4
 Isp, M/SEC                  361.8   1102.9   1949.4

 MOLE FRACTIONS

 *C              1.440-13 9.379-14 1.555-15 1.292-22
 *CH             1.305-12 8.790-13 2.692-14 3.393-20
 CH2             3.023-10 2.249-10 2.360-11 5.287-15
 CH3             1.1783-7 9.9338-8 4.5853-8 5.1301-9
 CH2OH           2.967-10 2.337-10 5.612-11 4.296-13
 CH3O            3.504-11 2.675-11 4.801-12 1.261-14
 CH4             3.9283-6 3.6781-6 6.2244-6 1.8419-4
 CH3OH           1.406 -9 1.201 -9 8.363-10 6.239-10
 *CO             4.8834-1 4.8810-1 4.8550-1 4.7027-1
 *CO2            1.7816-2 1.8075-2 2.0787-2 3.6063-2
 COOH            5.497 -8 4.615 -8 1.153 -8 5.825-11
 C2H             5.846-13 3.971-13 2.339-14 7.826-19
 C2H2,acetylene  1.1648-8 9.6068-9 4.8224-9 1.1287-9
 C2H2,vinylidene 2.485-12 1.797-12 2.544-13 3.523-16
 CH2CO,ketene    1.2200-8 1.0238-8 6.0457-9 2.5418-9
 O(CH)2O         1.215-12 9.452-13 2.715-13 6.340-15
 HO(CO)2OH       9.959-16 7.740-16 2.199-16 4.719-18
 C2H3,vinyl      3.463-12 2.575-12 6.378-13 1.132-14
 CH3CO,acetyl    8.221-12 6.319-12 2.151-12 1.384-13
 C2H4            3.041-10 2.564-10 2.813-10 2.651 -9
 C2H4O,ethylen-o 1.163-15 8.729-16 3.165-16 3.561-17
 CH3CHO,ethanal  8.788-12 7.194-12 5.948-12 1.738-11
 CH3COOH         2.896-13 2.364-13 1.912-13 5.331-13
 OHCH2COOH       3.127-16 2.334-16 8.014-17 7.241-18
 C2H5            1.518-13 1.152-13 6.171-14 4.363-14
 C2H6            7.370-13 6.139-13 1.066-12 1.141-10
 C2H5OH          1.534-15 1.178-15 9.409-16 4.315-15
 C2O             2.360-11 1.721-11 1.494-12 1.669-16
 C3H3,2-propynl  3.174-14 2.262-14 6.633-15 4.524-16
 C3H4,allene     8.390-15 6.275-15 3.897-15 7.353-15
 C3H4,propyne    2.001-14 1.505-14 9.834-15 2.257-14
 C3H5,allyl      2.042-16 1.468-16 8.324-17 1.512-16
 C3H6,propylene  4.828-16 3.667-16 4.682-16 2.838-14
 C3H6O,acetone   4.790-18 3.586-18 3.986-18 1.321-16
 C3H8            3.463-19 2.572-19 4.716-19 2.219-16
 C3O2            1.380-11 1.087-11 3.509-12 1.410-13
 C4H2,butadiyne  1.321-16 8.962-17 2.203-17 1.092-18
 *H              6.5078-4 5.8299-4 1.5372-4 6.0204-7
 HCO             1.7247-6 1.4547-6 3.7977-7 2.3201-9
 HCCO            4.609-11 3.459-11 5.265-12 7.270-15
 HO2             7.930-12 5.713-12 1.858-13 1.416-19
 *H2             4.1482-1 4.1513-1 4.1813-1 4.3312-1
 HCHO,formaldehy 1.8249-6 1.6277-6 9.6675-7 2.1516-7
 HCOOH           3.2341-7 2.8823-7 1.7063-7 3.9147-8
 H2O             7.8341-2 7.8088-2 7.5413-2 6.0359-2
 H2O2            4.375-11 3.322-11 2.378-12 5.634-17
 *O              1.792 -8 1.377 -8 6.274-10 1.536-15
 *OH             1.8305-5 1.5637-5 2.5966-6 1.4037-9
 *O2             1.431 -9 1.099 -9 4.936-11 1.044-16

  * THERMODYNAMIC PROPERTIES FITTED TO 20000.K

              THEORETICAL ROCKET PERFORMANCE ASSUMING EQUILIBRIUM

            COMPOSITION DURING EXPANSION FROM FINITE AREA COMBUSTOR

 Pin =   319.1 PSIA
 Ac/At =  2.0000      Pinj/Pinf =  1.056704
 CASE = test___________

             REACTANT                       MOLES         ENERGY      TEMP
                                                         KJ/KG-MOL      K
 FUEL        RP-1                       100.0000000    -24717.700    298.150
 OXIDANT     O2(L)                      100.0000000    -12979.000     90.170

 O/F=    1.30987  %FUEL= 43.292449  R,EQ.RATIO= 2.600000  PHI,EQ.RATIO= 2.600000

                 INJECTOR  COMB END  THROAT     EXIT
 Pinj/P            1.0000   1.1236   1.9339   9.9234
 P, BAR            22.000   19.580   11.376   2.2170
 T, K             2036.21  2008.48  1776.82  1223.27
 RHO, KG/CU M    2.1238 0 1.9164 0 1.2587 0 3.5723-1
 H, KJ/KG         -995.66 -1058.80 -1581.01 -2812.56
 U, KJ/KG        -2031.52 -2080.54 -2484.79 -3433.16
 G, KJ/KG        -27407.3 -27167.1 -24677.9 -18713.9
 S, KJ/(KG)(K)    12.9710  12.9990  12.9990  12.9990

 M, (1/n)          16.344   16.344   16.346   16.389
 (dLV/dLP)t      -1.00013 -1.00012 -1.00012 -1.00506
 (dLV/dLT)p        1.0023   1.0021   1.0012   1.0600
 Cp, KJ/(KG)(K)    2.2896   2.2832   2.2351   2.5250
 GAMMAs            1.2872   1.2881   1.2954   1.2832
 SON VEL,M/SEC     1154.7   1147.2   1082.0    892.4
 MACH NUMBER        0.000    0.310    1.000    2.136

 PERFORMANCE PARAMETERS

 Ae/At                      2.0000   1.0000   2.0000
 CSTAR, M/SEC               1528.6   1528.6   1528.6
 CF                         0.2325   0.7078   1.2470
 Ivac, M/SEC                3230.7   1917.3   2231.8
 Isp, M/SEC                  355.3   1082.0   1906.3

 MOLE FRACTIONS

 *C              2.423-14 1.511-14 1.653-16 3.701-24
 *CH             3.527-13 2.297-13 5.071-15 2.273-21
 CH2             1.804-10 1.317-10 1.159-11 1.490-15
 CH3             1.7634-7 1.4863-7 6.8823-8 7.7999-9
 CH2OH           2.328-10 1.820-10 4.093-11 2.554-13
 CH3O            2.362-11 1.786-11 2.935-12 5.902-15
 CH4             1.3387-5 1.2752-5 2.5648-5 1.3132-3
 CH3OH           2.2314-9 1.9194-9 1.4394-9 1.3613-9
 *CO             4.9210-1 4.9188-1 4.8944-1 4.7506-1
 *CO2            1.4150-2 1.4385-2 1.6871-2 3.1282-2
 COOH            2.340 -8 1.942 -8 4.338 -9 1.547-11
 C2H             4.013-13 2.668-13 1.288-14 2.340-19
 C2H2,acetylene  2.8149-8 2.3315-8 1.2283-8 3.4101-9
 C2H2,vinylidene 3.144-12 2.250-12 2.920-13 3.109-16
 CH2CO,ketene    2.3486-8 1.9825-8 1.2478-8 6.5341-9
 O(CH)2O         1.183-12 9.190-13 2.620-13 6.128-15
 HO(CO)2OH       5.166-16 4.011-16 1.136-16 2.478-18
 C2H3,vinyl      6.838-12 5.080-12 1.258-12 2.264-14
 CH3CO,acetyl    1.398-11 1.077-11 3.807-12 2.819-13
 C2H4            1.5098-9 1.2958-9 1.7063-9 2.9187-8
 C2H4O,ethylen-o 2.393-15 1.809-15 7.054-16 1.022-16
 CH3CHO,ethanal  2.764-11 2.297-11 2.216-11 1.076-10
 CH3COOH         6.586-13 5.459-13 5.175-13 2.461-12
 OHCH2COOH       3.353-16 2.519-16 9.319-17 1.105-17
 C2H5            6.119-13 4.705-13 2.885-13 3.188-13
 C2H6            6.366-12 5.454-12 1.260-11 3.401 -9
 C2H5OH          6.517-15 5.107-15 5.013-15 4.515-14
 C2O             1.235-11 8.829-12 6.360-13 3.998-17
 C3H3,2-propynl  1.241-13 8.902-14 2.825-14 2.553-15
 C3H4,allene     5.648-14 4.299-14 3.215-14 1.130-13
 C3H4,propyne    1.383-13 1.059-13 8.373-14 3.628-13
 C3H4,cyclo-     2.682-16 1.904-16 7.322-17 1.897-17
 C3H5,allyl      1.537-15 1.127-15 7.859-16 2.852-15
 C3H6,propylene  6.467-15 5.065-15 8.867-15 1.510-12
 C3H6,cyclo-     2.399-17 1.824-17 2.412-17 1.427-15
 C3H6O,acetone   4.378-17 3.375-17 5.071-17 4.516-15
 C3H6O,propanal  3.012-17 2.251-17 2.517-17 7.210-16
 C3H8            7.676-18 5.935-18 1.639-17 2.924-14
 C3O2            1.884-11 1.484-11 4.844-12 2.083-13
 C4H2,butadiyne  7.298-16 4.993-16 1.350-16 9.512-18
 C4H6,butadiene  1.877-18 1.344-18 1.810-18 2.296-16
 *H              2.9181-4 2.5713-4 5.7734-5 1.3609-7
 HCO             1.026 -6 8.557 -7 2.001 -7 8.643-10
 HCCO            3.775-11 2.801-11 3.845-12 3.891-15
 HO2             6.533-13 4.526-13 1.006-14 2.270-21
 *H2             4.3456-1 4.3482-1 4.3742-1 4.4909-1
 HCHO,formaldehy 1.9407-6 1.7309-6 1.0315-6 2.3260-7
 HCOOH           2.5104-7 2.2387-7 1.3381-7 3.2179-8
 H2O             5.8878-2 5.8645-2 5.6184-2 4.3252-2
 H2O2            6.336-12 4.678-12 2.548-13 2.519-18
 *O              2.040 -9 1.509 -9 4.753-11 3.601-17
 *OH             4.752 -6 3.971 -6 5.323 -7 1.447-10
 *O2             1.186-10 8.762-11 2.709-12 1.741-18

  * THERMODYNAMIC PROPERTIES FITTED TO 20000.K

              THEORETICAL ROCKET PERFORMANCE ASSUMING EQUILIBRIUM

            COMPOSITION DURING EXPANSION FROM FINITE AREA COMBUSTOR

 Pin =   319.1 PSIA
 Ac/At =  2.0000      Pinj/Pinf =  1.056975
 CASE = test___________

             REACTANT                       MOLES         ENERGY      TEMP
                                                         KJ/KG-MOL      K
 FUEL        RP-1                       100.0000000    -24717.700    298.150
 OXIDANT     O2(L)                      100.0000000    -12979.000     90.170

 O/F=    1.26136  %FUEL= 44.221218  R,EQ.RATIO= 2.700000  PHI,EQ.RATIO= 2.700000

                 INJECTOR  COMB END  THROAT     EXIT
 Pinj/P            1.0000   1.1242   1.9397   9.7794
 P, BAR            22.000   19.569   11.342   2.2496
 T, K             1907.65  1880.88  1658.32  1165.94
 RHO, KG/CU M    2.2197 0 2.0026 0 1.3167 0 3.7571-1
 H, KJ/KG        -1008.32 -1069.01 -1569.86 -2732.52
 U, KJ/KG        -1999.44 -2046.21 -2431.28 -3331.29
 G, KJ/KG        -25761.7 -25529.3 -23135.8 -17895.2
 S, KJ/(KG)(K)    12.9759  13.0047  13.0047  13.0047

 M, (1/n)          16.003   16.003   16.006   16.190
 (dLV/dLP)t      -1.00024 -1.00023 -1.00050 -1.01977
 (dLV/dLT)p        1.0024   1.0022   1.0043   1.2470
 Cp, KJ/(KG)(K)    2.2800   2.2746   2.2438   3.7483
 GAMMAs            1.2965   1.2974   1.3038   1.2396
 SON VEL,M/SEC     1133.6   1126.0   1059.8    861.5
 MACH NUMBER        0.000    0.309    1.000    2.155

 PERFORMANCE PARAMETERS

 Ae/At                      2.0000   1.0000   2.0000
 CSTAR, M/SEC               1491.7   1491.7   1491.7
 CF                         0.2336   0.7105   1.2449
 Ivac, M/SEC                3153.3   1872.6   2179.4
 Isp, M/SEC                  348.4   1059.8   1857.0

 MOLE FRACTIONS

 *C              3.567-15 2.123-15 1.492-17 3.108-25
 *CH             8.689-14 5.454-14 8.505-16 3.523-22
 CH2             1.053-10 7.537-11 5.497-12 6.491-16
 CH3             2.8068-7 2.3659-7 1.0999-7 1.1434-8
 CH2OH           1.758-10 1.364-10 2.863-11 1.786-13
 CH3O            1.516-11 1.135-11 1.702-12 3.486-15
 CH4             5.2546-5 5.1015-5 1.2338-4 5.8627-3
 CH3OH           3.6379-9 3.1541-9 2.5625-9 2.4303-9
 *CO             4.9569-1 4.9550-1 4.9337-1 4.7986-1
 *CO2            1.0606-2 1.0806-2 1.2952-2 2.6546-2
 COOH            8.813 -9 7.220 -9 1.434 -9 5.641-12
 C2H             2.857-13 1.857-13 7.269-15 1.160-19
 C2H2,acetylene  7.9267-8 6.5989-8 3.6652-8 8.9166-9
 C2H2,vinylidene 4.341-12 3.076-12 3.642-13 3.357-16
 CH2CO,ketene    4.9646-8 4.2192-8 2.8469-8 1.4238-8
 O(CH)2O         1.143-12 8.871-13 2.516-13 6.209-15
 HO(CO)2OH       2.333-16 1.810-16 5.124-17 1.421-18
 C2H3,vinyl      1.534-11 1.139-11 2.823-12 4.418-14
 CH3CO,acetyl    2.572-11 1.990-11 7.335-12 5.226-13
 C2H4            9.2783-9 8.1232-9 1.3015-8 1.9450-7
 C2H4O,ethylen-o 5.413-15 4.121-15 1.742-15 2.433-16
 CH3CHO,ethanal  9.931-11 8.391-11 9.563-11 4.441-10
 CH3COOH         1.603-12 1.352-12 1.523-12 7.730-12
 OHCH2COOH       3.458-16 2.618-16 1.053-16 1.472-17
 C2H5            2.979-12 2.324-12 1.650-12 1.590-12
 C2H6            7.123-11 6.297-11 1.977-10 4.670 -8
 C2H5OH          3.229-14 2.588-14 3.173-14 2.741-13
 CH3OCH3         2.153-16 1.651-16 1.329-16 2.558-16
 C2O             6.320-12 4.423-12 2.616-13 1.575-17
 C3H3,2-propynl  6.123-13 4.429-13 1.532-13 1.148-14
 C3H4,allene     5.042-13 3.916-13 3.580-13 1.047-12
 C3H4,propyne    1.271-12 9.931-13 9.644-13 3.470-12
 C3H4,cyclo-     1.706-15 1.227-15 5.400-16 1.165-16
 C3H5,allyl      1.547-14 1.160-14 1.011-14 3.077-14
 C3H6,propylene  1.218-13 9.873-14 2.426-13 3.439-11
 C3H6,cyclo-     3.911-16 3.070-16 5.561-16 2.761-14
 C3H6O,acetone   5.226-16 4.163-16 8.651-16 7.006-14
 C3H6O,propanal  3.091-16 2.380-16 3.581-16 9.384-15
 C3H8            2.492-16 2.015-16 8.635-16 1.288-12
 C3O2            2.766-11 2.180-11 7.222-12 3.101-13
 C4H2,butadiyne  5.502-15 3.802-15 1.143-15 6.360-17
 C4H6,butadiene  5.970-17 4.445-17 8.795-17 8.963-15
 C4H6,1butyne    4.834-18 3.454-18 4.553-18 1.013-16
 C4H6,2butyne    4.025-18 2.940-18 4.771-18 2.200-16
 C4H8,1-butene   3.944-19 2.926-19 9.847-19 8.906-16
 C4H8,cis2-buten 1.613-19 1.209-19 4.483-19 5.641-16
 C4H8,tr2-butene 1.813-19 1.358-19 5.034-19 6.412-16
 C4H8,isobutene  2.011-19 1.514-19 5.886-19 8.874-16
 C6H6            3.160-21 2.472-21 2.505-20 1.723-15
 *H              1.2073-4 1.0450-4 1.9782-5 4.6266-8
 HCO             5.778 -7 4.758 -7 9.900 -8 4.288-10
 HCCO            3.140-11 2.302-11 2.835-12 2.740-15
 HO2             3.911-14 2.596-14 3.849-16 1.010-22
 *H2             4.5251-1 4.5272-1 4.5478-1 4.5624-1
 HCHO,formaldehy 2.0576-6 1.8355-6 1.0985-6 2.4887-7
 HCOOH           1.8228-7 1.6269-7 9.8456-8 2.6567-8
 H2O             4.1018-2 4.0817-2 3.8754-2 3.1492-2
 H2O2            7.007-13 5.016-13 2.044-14 2.349-19
 *O              1.817-10 1.290-10 2.743-12 2.243-18
 *OH             1.038 -6 8.467 -7 9.036 -8 2.616-11
 *O2             7.180-12 5.088-12 1.057-13 7.938-20

  * THERMODYNAMIC PROPERTIES FITTED TO 20000.K

              THEORETICAL ROCKET PERFORMANCE ASSUMING EQUILIBRIUM

            COMPOSITION DURING EXPANSION FROM FINITE AREA COMBUSTOR

 Pin =   319.1 PSIA
 Ac/At =  2.0000      Pinj/Pinf =  1.057165
 CASE = test___________

             REACTANT                       MOLES         ENERGY      TEMP
                                                         KJ/KG-MOL      K
 FUEL        RP-1                       100.0000000    -24717.700    298.150
 OXIDANT     O2(L)                      100.0000000    -12979.000     90.170

 O/F=    1.21631  %FUEL= 45.120054  R,EQ.RATIO= 2.800000  PHI,EQ.RATIO= 2.800000

                 INJECTOR  COMB END  THROAT     EXIT
 Pinj/P            1.0000   1.1246   1.9418   9.3965
 P, BAR            22.000   19.562   11.330   2.3413
 T, K             1784.80  1759.09  1548.72  1145.08
 RHO, KG/CU M    2.3263 0 2.0987 0 1.3819 0 3.9662-1
 H, KJ/KG        -1020.57 -1078.66 -1556.45 -2646.97
 U, KJ/KG        -1966.29 -2010.75 -2376.30 -3237.29
 G, KJ/KG        -24162.6 -23939.2 -21683.1 -17528.1
 S, KJ/(KG)(K)    12.9662  12.9957  12.9957  12.9957

 M, (1/n)          15.691   15.691   15.706   16.128
 MW, MOL WT        15.691   15.691   15.706   16.060
 (dLV/dLP)t      -1.00102 -1.00101 -1.00277 -1.05056
 (dLV/dLT)p        1.0081   1.0081   1.0251   1.7364
 Cp, KJ/(KG)(K)    2.2966   2.2923   2.3395   7.8784
 GAMMAs            1.3046   1.3054   1.3072   1.1719
 SON VEL,M/SEC     1110.7   1103.0   1035.2    831.8
 MACH NUMBER        0.000    0.309    1.000    2.168

 PERFORMANCE PARAMETERS

 Ae/At                      2.0000   1.0000   2.0000
 CSTAR, M/SEC               1454.6   1454.6   1454.6
 CF                         0.2343   0.7117   1.2399
 Ivac, M/SEC                3075.6   1827.2   2130.9
 Isp, M/SEC                  340.8   1035.3   1803.6

 MOLE FRACTIONS

 *C              4.869-16 2.757-16 1.282-18 1.273-25
 *CH             2.070-14 1.250-14 1.404-16 1.859-22
 CH2             6.388-11 4.478-11 2.724-12 5.202-16
 CH3             5.0663-7 4.2730-7 1.9720-7 1.4917-8
 CH2OH           1.278-10 9.838-11 1.941-11 1.622-13
 CH3O            9.274-12 6.869-12 9.491-13 2.965-15
 CH4             2.5396-4 2.5178-4 7.1296-4 1.1983-2
 CH3OH           6.1078-9 5.3430-9 4.6739-9 3.2266-9
 *CO             4.9927-1 4.9912-1 4.9742-1 4.7924-1
 *CO2            7.0507-3 7.1999-3 8.9155-3 2.2994-2
 COOH            2.753 -9 2.225 -9 4.021-10 3.574-12
 C2H             2.389-13 1.518-13 4.811-15 1.072-19
 C2H2,acetylene  2.9573-7 2.4774-7 1.4161-7 1.5988-8
 C2H2,vinylidene 7.425-12 5.209-12 5.558-13 4.266-16
 CH2CO,ketene    1.2304-7 1.0540-7 7.5189-8 2.2065-8
 O(CH)2O         1.099-12 8.520-13 2.417-13 6.631-15
 C2H3,vinyl      4.442-11 3.300-11 8.026-12 7.180-14
 CH3CO,acetyl    5.468-11 4.251-11 1.617-11 7.728-13
 C2H4            8.0429-8 7.2012-8 1.3532-7 5.1780-7
 C2H4O,ethylen-o 1.437-14 1.104-14 4.987-15 4.028-16
 CH3CHO,ethanal  4.360-10 3.754-10 4.943-10 9.106-10
 CH3COOH         4.201-12 3.612-12 4.790-12 1.323-11
 OHCH2COOH       3.235-16 2.471-16 1.093-16 1.676-17
 C2H5            1.995-11 1.583-11 1.259-11 3.841-12
 C2H6            1.1791-9 1.0793-9 4.3967-9 1.6999-7
 C2H5OH          1.999-13 1.643-13 2.450-13 6.740-13
 CH3OCH3         1.077-15 8.435-16 7.982-16 5.736-16
 C2O             3.363-12 2.302-12 1.128-13 1.216-17
 C3H3,1-propynl  3.954-16 2.593-16 3.394-17 3.796-20
 C3H3,2-propynl  4.625-12 3.380-12 1.230-12 2.877-14
 C3H4,allene     7.253-12 5.765-12 6.153-12 3.532-12
 C3H4,propyne    1.885-11 1.508-11 1.718-11 1.185-11
 C3H4,cyclo-     1.695-14 1.239-14 5.995-15 3.350-16
 C3H5,allyl      2.532-13 1.947-13 2.025-13 1.119-13
 C3H6,propylene  3.926-12 3.308-12 1.077-11 1.699-10
 C3H6,cyclo-     1.079-14 8.782-15 2.063-14 1.280-13
 C3H6O,acetone   9.313-15 7.697-15 2.116-14 2.766-13
 C3H6O,propanal  4.675-15 3.724-15 7.230-15 3.461-14
 C3H7,n-propyl   2.390-16 1.756-16 2.087-16 1.705-16
 C3H7,i-propyl   2.128-16 1.583-16 2.107-16 2.370-16
 C3H8            1.446-14 1.229-14 7.651-14 8.488-12
 C3O2            4.663-11 3.683-11 1.231-11 4.154-13
 C4H2,butadiyne  7.315-14 5.119-14 1.632-14 2.042-16
 C4H6,butadiene  3.788-15 2.948-15 7.984-15 6.089-14
 C4H6,1butyne    2.507-16 1.862-16 3.221-16 6.256-16
 C4H6,2butyne    2.319-16 1.764-16 3.820-16 1.419-15
 C4H8,1-butene   4.465-17 3.495-17 1.745-16 7.968-15
 C4H8,cis2-buten 1.919-17 1.519-17 8.413-17 5.147-15
 C4H8,tr2-butene 2.154-17 1.705-17 9.453-17 5.857-15
 C4H8,isobutene  2.448-17 1.948-17 1.137-16 8.191-15
 C4H10,n-butane  1.821-19 1.435-19 1.352-18 4.194-16
 C4H10,isobutane 6.167-20 4.901-20 4.986-19 1.954-16
 C5H6,1,3cyclo-  5.167-18 4.036-18 1.971-17 6.643-16
 C6H6            2.231-18 1.877-18 3.214-17 3.419-14
 *H              4.6009-5 3.9062-5 6.3268-6 2.9744-8
 HCO             3.075 -7 2.499 -7 4.677 -8 3.300-10
 HCCO            2.824-11 2.046-11 2.263-12 2.694-15
 HO2             1.492-15 9.454-16 9.900-18 2.535-23
 *H2             4.6851-1 4.6867-1 4.6945-1 4.5590-1
 HCHO,formaldehy 2.1770-6 1.9428-6 1.1683-6 2.6236-7
 HCOOH           1.1642-7 1.0403-7 6.4613-8 2.3511-8
 H2O             2.4865-2 2.4714-2 2.3489-2 2.5640-2
 H2O2            5.197-14 3.599-14 1.150-15 7.986-20
 *O              1.184-11 8.037-12 1.208-13 6.809-19
 *OH             1.785 -7 1.419 -7 1.242 -8 1.220-11
 *O2             2.784-13 1.886-13 2.787-15 1.979-20
 C(gr)           0.0000 0 0.0000 0 0.0000 0 4.2464-3

  * THERMODYNAMIC PROPERTIES FITTED TO 20000.K

              THEORETICAL ROCKET PERFORMANCE ASSUMING EQUILIBRIUM

            COMPOSITION DURING EXPANSION FROM FINITE AREA COMBUSTOR

 Pin =   319.1 PSIA
 Ac/At =  2.0000      Pinj/Pinf =  1.056896
 CASE = test___________

             REACTANT                       MOLES         ENERGY      TEMP
                                                         KJ/KG-MOL      K
 FUEL        RP-1                       100.0000000    -24717.700    298.150
 OXIDANT     O2(L)                      100.0000000    -12979.000     90.170

 O/F=    1.17437  %FUEL= 45.990382  R,EQ.RATIO= 2.900000  PHI,EQ.RATIO= 2.900000

                 INJECTOR  COMB END  THROAT     EXIT
 Pinj/P            1.0000   1.1240   1.9284   8.9465
 P, BAR            22.000   19.573   11.409   2.4591
 T, K             1674.32  1650.00  1464.38  1146.40
 RHO, KG/CU M    2.4397 0 2.2026 0 1.4535 0 4.1626-1
 H, KJ/KG        -1032.43 -1087.52 -1538.44 -2574.90
 U, KJ/KG        -1934.19 -1976.15 -2323.32 -3165.66
 G, KJ/KG        -22699.0 -22488.5 -20531.8 -17444.1
 S, KJ/(KG)(K)    12.9405  12.9703  12.9703  12.9703

 M, (1/n)          15.438   15.438   15.513   16.135
 MW, MOL WT        15.438   15.438   15.513   15.776
 (dLV/dLP)t      -1.00583 -1.00588 -1.01260 -1.05156
 (dLV/dLT)p        1.0484   1.0496   1.1215   1.7455
 Cp, KJ/(KG)(K)    2.4735   2.4777   2.8443   7.9382
 GAMMAs            1.3046   1.3048   1.2894   1.1713
 SON VEL,M/SEC     1084.6   1076.8   1006.0    831.8
 MACH NUMBER        0.000    0.308    1.000    2.112

 PERFORMANCE PARAMETERS

 Ae/At                      2.0000   1.0000   2.0000
 CSTAR, M/SEC               1423.6   1423.6   1423.6
 CF                         0.2332   0.7067   1.2338
 Ivac, M/SEC                3009.1   1786.2   2092.7
 Isp, M/SEC                  331.9   1006.0   1756.4

 MOLE FRACTIONS

 *CH             6.217-15 3.628-15 3.628-17 1.930-22
 CH2             4.970-11 3.422-11 1.830-12 5.439-16
 CH3             1.1996-6 1.0125-6 4.0605-7 1.5638-8
 CH2OH           9.097-11 6.966-11 1.379-11 1.742-13
 CH3O            5.552-12 4.082-12 5.709-13 3.198-15
 CH4             1.6491-3 1.6655-3 4.0775-3 1.2625-2
 CH3OH           1.0222-8 9.0253-9 7.8694-9 3.4980-9
 *CO             5.0279-1 5.0271-1 5.0118-1 4.6184-1
 *CO2            3.5509-3 3.6373-3 5.2002-3 2.2379-2
 COOH            6.367-10 5.096-10 1.071-10 3.672-12
 C2H             3.413-13 2.124-13 5.232-15 1.109-19
 C2H2,acetylene  1.9458-6 1.6386-6 7.1584-7 1.6394-8
 C2H2,vinylidene 2.191-11 1.524-11 1.248-12 4.473-16
 CH2CO,ketene    4.0644-7 3.5087-7 2.1979-7 2.2854-8
 O(CH)2O         1.052-12 8.172-13 2.363-13 7.040-15
 C2H3,vinyl      2.242-10 1.666-10 3.098-11 7.665-14
 CH3CO,acetyl    1.540-10 1.204-10 4.041-11 8.307-13
 C2H4            1.2448-6 1.1367-6 1.6175-6 5.5404-7
 C2H4O,ethylen-o 5.066-14 3.930-14 1.564-14 4.447-16
 CH3CHO,ethanal  2.568 -9 2.251 -9 2.590 -9 9.916-10
 CH3COOH         1.118-11 9.798-12 1.317-11 1.459-11
 OHCH2COOH       2.293-16 1.772-16 9.226-17 1.898-17
 C2H5            2.360-10 1.901-10 1.148-10 4.279-12
 C2H6            3.5140-8 3.3182-8 1.0181-7 1.9080-7
 C2H5OH          1.662-12 1.399-12 1.819-12 7.765-13
 CH3OCH3         7.203-15 5.756-15 4.762-15 6.647-16
 C2O             2.316-12 1.556-12 6.814-14 1.231-17
 C3H3,1-propynl  4.296-15 2.819-15 2.480-16 4.127-20
 C3H3,2-propynl  8.193-11 6.042-11 1.473-11 3.085-14
 C3H4,allene     2.478-10 2.010-10 1.431-10 3.845-12
 C3H4,propyne    6.645-10 5.430-10 4.120-10 1.289-11
 C3H4,cyclo-     3.966-13 2.939-13 9.527-14 3.684-16
 C3H5,allyl      9.845-12 7.747-12 5.383-12 1.254-13
 C3H6,propylene  3.042-10 2.653-10 5.717-10 1.931-10
 C3H6,cyclo-     7.147-13 6.005-13 9.381-13 1.462-13
 C3H6O,acetone   3.004-13 2.569-13 5.386-13 3.192-13
 C3H6O,propanal  1.276-13 1.049-13 1.559-13 4.012-14
 C3H7,n-propyl   1.319-14 9.975-15 7.874-15 2.022-16
 C3H7,i-propyl   1.240-14 9.505-15 8.388-15 2.807-16
 C3H8            2.032-12 1.806-12 7.411-12 1.014-11
 C3H8O,1propanol 8.662-17 6.879-17 1.220-16 3.958-17
 C3H8O,2propanol 9.357-17 7.531-17 1.502-16 6.589-17
 C3O2            1.052-10 8.327-11 2.491-11 4.194-13
 C4H2,butadiyne  3.052-12 2.159-12 4.060-13 2.151-16
 C4H6,butadiene  7.762-13 6.280-13 9.949-13 7.005-14
 C4H6,1butyne    4.155-14 3.194-14 3.221-14 7.242-16
 C4H6,2butyne    4.282-14 3.377-14 4.253-14 1.638-15
 C4H6,cyclo-     1.112-15 8.643-16 9.599-16 2.788-17
 C4H8,1-butene   1.634-14 1.342-14 3.882-14 9.640-15
 C4H8,cis2-buten 7.385-15 6.137-15 1.966-14 6.219-15
 C4H8,tr2-butene 8.292-15 6.892-15 2.211-14 7.077-15
 C4H8,isobutene  9.657-15 8.074-15 2.725-14 9.890-15
 C4H10,n-butane  1.200-16 1.003-16 5.450-16 5.332-16
 C4H10,isobutane 4.217-17 3.556-17 2.088-16 2.481-16
 C5H6,1,3cyclo-  4.069-15 3.336-15 8.318-15 7.660-16
 C6H6            9.278-15 8.314-15 6.336-14 3.917-14
 *H              1.7075-5 1.4257-5 2.3256-6 2.9516-8
 HCO             1.604 -7 1.289 -7 2.432 -8 3.346-10
 HCCO            3.315-11 2.378-11 2.334-12 2.777-15
 *H2             4.8074-1 4.8080-1 4.7745-1 4.5494-1
 HCHO,formaldehy 2.2887-6 2.0452-6 1.2317-6 2.6969-7
 HCOOH           5.5956-8 5.0156-8 3.6176-8 2.4459-8
 H2O             1.1244-2 1.1173-2 1.2084-2 2.5944-2
 H2O2            2.089-15 1.409-15 6.018-17 8.555-20
 *O              5.510-13 3.604-13 6.355-15 6.859-19
 *OH             2.232 -8 1.737 -8 1.758 -9 1.237-11
 *O2             5.811-15 3.792-15 7.552-17 2.021-20
 C(gr)           0.0000 0 0.0000 0 0.0000 0 2.2271-2

  * THERMODYNAMIC PROPERTIES FITTED TO 20000.K