
 *******************************************************************************

         NASA-GLENN CHEMICAL EQUILIBRIUM PROGRAM CEA2, MAY 21, 2004
                   BY  BONNIE MCBRIDE AND SANFORD GORDON
      REFS: NASA RP-1311, PART I, 1994 AND NASA RP-1311, PART II, 1996

 *******************************************************************************



 problem
       shock  inc  eq  mach1=1,2,3,4,5,6,7,8,9,10, t,k=300,300,300,300,300,300,30
 0,300,300,300,  p,bar=1,1,1,1,1,1,1,1,1,1,

 NOTE!! MAXIMUM NUMBER OF ASSIGNED mach1 VALUES IS  8 (INPUT)

 react
   name=O2 moles=1 t,k=300
   name=N2 moles=3.7619 t,k=300
 output
      trace=1e-16 siunits short
 end




                         SHOCK WAVE PARAMETERS ASSUMING

                 EQUILIBRIUM COMPOSITION FOR INCIDENT SHOCKED CONDITIONS


 CASE =                

             REACTANT                       MOLES         ENERGY      TEMP
                                                         KJ/KG-MOL      K
 NAME        O2                           1.0000000        54.358    300.000
 NAME        N2                           3.7619000        53.881    300.000

 O/F=    0.00000  %FUEL=  0.000000  R,EQ.RATIO= 0.000000  PHI,EQ.RATIO= 0.000000

 INITIAL GAS (1)
 MACH NUMBER1      1.0000   2.0000   3.0000   4.0000   5.0000   6.0000   7.0000   8.0000
 U1, M/SEC         347.72   695.44  1043.16  1390.88  1738.61  2086.33  2434.05  2781.77
 P, BAR            1.0000   1.0000   1.0000   1.0000   1.0000   1.0000   1.0000   1.0000
 T, K              300.00   300.00   300.00   300.00   300.00   300.00   300.00   300.00
 RHO, KG/CU M    1.1566 0 1.1566 0 1.1566 0 1.1566 0 1.1566 0 1.1566 0 1.1566 0 1.1566 0
 H, KJ/KG          1.8711   1.8711   1.8711   1.8711   1.8711   1.8711   1.8711   1.8711
 U, KJ/KG         -84.587  -84.587  -84.587  -84.587  -84.587  -84.587  -84.587  -84.587
 G, KJ/KG        -2066.46 -2066.46 -2066.46 -2066.46 -2066.46 -2066.46 -2066.46 -2066.46
 S, KJ/(KG)(K)     6.8944   6.8944   6.8944   6.8944   6.8944   6.8944   6.8944   6.8944

 M, (1/n)          28.850   28.850   28.850   28.850   28.850   28.850   28.850   28.850
 Cp, KJ/(KG)(K)    1.0114   1.0114   1.0114   1.0114   1.0114   1.0114   1.0114   1.0114
 GAMMAs            1.3985   1.3985   1.3985   1.3985   1.3985   1.3985   1.3985   1.3985
 SON VEL,M/SEC      347.7    347.7    347.7    347.7    347.7    347.7    347.7    347.7

 SHOCKED GAS (2)--INCIDENT--EQUILIBRIUM
 U2, M/SEC         347.70   258.93   262.14   283.64   310.28   337.42   362.33   382.91
 P, BAR            1.0001   4.5112   10.423   18.813   29.722   43.203   59.325   78.183
 T, K              300.01   503.88   785.80  1150.92  1591.37  2096.18  2647.33  3211.86
 RHO, KG/CU M    1.1567 0 3.1066 0 4.6027 0 5.6718 0 6.4809 0 7.1515 0 7.7700 0 8.4026 0
 H, KJ/KG          1.8778   210.17   511.61   928.93  1465.11  2121.32  2898.53  3797.68
 U, KJ/KG         -84.582   64.956   285.14   597.24  1006.49  1517.22  2135.02  2867.23
 G, KJ/KG        -2066.50 -3311.69 -5163.59 -7688.26 -10866.8 -14646.1 -18905.4 -23386.2
 S, KJ/(KG)(K)     6.8944   6.9895   7.2222   7.4872   7.7492   7.9990   8.2362   8.4636

 M, (1/n)          28.850   28.850   28.850   28.851   28.851   28.850   28.829   28.701
 (dLV/dLP)t      -1.00000 -1.00000 -1.00000 -1.00000 -1.00001 -1.00005 -1.00046 -1.00269
 (dLV/dLT)p        1.0000   1.0000   1.0000   1.0000   1.0000   1.0006   1.0093   1.0490
 Cp, KJ/(KG)(K)    1.0114   1.0371   1.1031   1.1793   1.2548   1.3476   1.4873   1.7435
 GAMMAs            1.3985   1.3848   1.3536   1.3234   1.2981   1.2724   1.2455   1.2198
 SON VEL,M/SEC      347.7    448.4    553.7    662.5    771.6    876.7    975.2   1065.3

 P2/P1              1.000    4.511   10.423   18.813   29.722   43.203   59.325   78.183
 T2/T1              1.000    1.680    2.619    3.836    5.305    6.987    8.824   10.706
 M2/M1             1.0000   1.0000   1.0000   1.0000   1.0000   1.0000   0.9993   0.9948
 RHO2/RHO1         1.0001   2.6859   3.9794   4.9038   5.6033   6.1831   6.7178   7.2648
 V2, M/SEC           0.02   436.52   781.02  1107.25  1428.32  1748.90  2071.72  2398.86

 MOLE FRACTIONS

 *N              0.000  0 0.000  0 1.361-29 1.119-19 8.962-14 4.571-10 1.211 -7 4.912 -6
 *NO             2.317-16 6.266-10 1.565 -6 1.324 -4 1.862 -3 9.723 -3 2.805 -2 5.454 -2
 NO2             1.390-10 7.032 -8 1.834 -6 1.248 -5 4.199 -5 9.423 -5 1.615 -4 2.243 -4
 NO3             4.634-22 1.946-16 1.915-13 1.183-11 1.668-10 9.984-10 3.399 -9 7.545 -9
 *N2             7.9000-1 7.9000-1 7.9000-1 7.8993-1 7.8906-1 7.8509-1 7.7530-1 7.5850-1
 N2O             3.001-19 3.425-13 5.585-10 4.168 -8 6.090 -7 3.576 -6 1.198 -5 2.723 -5
 N2O3            1.432-26 1.781-19 1.178-15 2.347-13 7.150-12 7.349-11 3.724-10 1.116 -9
 N2O4            1.176-19 1.398-17 2.174-16 1.622-15 7.941-15 2.828-14 7.545-14 1.505-13
 N2O5            4.681-23 1.718-20 5.033-19 5.720-18 3.809-17 1.716-16 5.461-16 1.227-15
 N3              0.000  0 0.000  0 9.143-33 1.980-23 8.080-18 2.992-14 6.977-12 2.771-10
 *O              0.000  0 3.979-24 5.718-15 8.971-10 1.096 -6 9.320 -5 1.648 -3 1.059 -2
 *O2             2.1000-1 2.1000-1 2.1000-1 2.0992-1 2.0903-1 2.0500-1 1.9483-1 1.7611-1
 O3              5.079-30 1.015-19 2.885-14 3.963-11 3.217 -9 5.440 -8 3.699 -7 1.391 -6

  * THERMODYNAMIC PROPERTIES FITTED TO 20000.K



