
 *******************************************************************************

         NASA-GLENN CHEMICAL EQUILIBRIUM PROGRAM CEA2, MAY 21, 2004
                   BY  BONNIE MCBRIDE AND SANFORD GORDON
      REFS: NASA RP-1311, PART I, 1994 AND NASA RP-1311, PART II, 1996

 *******************************************************************************



 problem    phi,eq.ratio=3.7,3.8,3.9,4,
       det   t,k=300,  p,bar=1,
 react
   fuel=C2H2,acetylene moles=1 t,k=300
   oxid=O2 moles=2.5 t,k=300
 output
      trace=1e-16 siunits short
 end


                     DETONATION PROPERTIES OF AN IDEAL REACTING GAS
 CASE =                

             REACTANT                       MOLES         ENERGY      TEMP
                                                         KJ/KG-MOL      K
 FUEL        C2H2,acetylene               1.0000000    228281.530    300.000
 OXIDANT     O2                           2.5000000        54.358    300.000

 O/F=    0.83038  %FUEL= 54.633494  R,EQ.RATIO= 3.700000  PHI,EQ.RATIO= 3.700000

 UNBURNED GAS

 P1, BAR           1.0000
 T1, K             300.00
 H1, KJ/KG        4790.76
 M1, (1/n)         28.441
 GAMMA1            1.2783
 SON VEL1,M/SEC     334.8

 BURNED GAS

 P, BAR            34.858
 T, K             3813.13
 RHO, KG/CU M    2.0916 0
 H, KJ/KG         7084.84
 U, KJ/KG         5418.29
 G, KJ/KG        -42455.4
 S, KJ/(KG)(K)    12.9920

 M, (1/n)          19.024
 MW, MOL WT        19.024
 (dLV/dLP)t      -1.03385
 (dLV/dLT)p        1.5094
 Cp, KJ/(KG)(K)    5.6963
 GAMMAs            1.1641
 SON VEL,M/SEC     1392.8

 DETONATION PARAMETERS

 P/P1              34.858
 T/T1              12.710
 M/M1              0.6689
 RHO/RHO1          1.8344
 DET MACH NUMBER   7.6309
 DET VEL,M/SEC     2555.0

 MOLE FRACTIONS

 *C              5.6059-4
 *CH             2.6035-4
 CH2             3.5968-4
 CH3             3.9543-4
 CH2OH           2.6812-9
 CH3O            9.875-10
 CH4             8.7434-5
 CH3OH           1.579-10
 *CO             5.3919-1
 *CO2            4.0957-6
 COOH            8.726-10
 *C2             7.1284-4
 C2H             1.2972-2
 C2H2,acetylene  7.8616-2
 C2H2,vinylidene 1.0587-3
 CH2CO,ketene    1.4198-5
 O(CH)2O         5.193-12
 C2H3,vinyl      9.7270-5
 CH3CO,acetyl    2.7110-8
 C2H4            2.4654-5
 C2H4O,ethylen-o 1.335-12
 CH3CHO,ethanal  5.815-10
 CH3COOH         6.997-15
 C2H5            5.6304-8
 C2H6            2.2471-9
 C2H5OH          2.011-14
 CH3OCH3         6.313-16
 C2O             1.0777-4
 *C3             5.4282-3
 C3H3,1-propynl  2.2148-6
 C3H3,2-propynl  5.2505-4
 C3H4,allene     4.8265-6
 C3H4,propyne    9.6235-6
 C3H4,cyclo-     2.4001-7
 C3H5,allyl      6.9993-8
 C3H6,propylene  4.2946-9
 C3H6,cyclo-     4.672-11
 C3H6O,propylox  1.472-16
 C3H6O,acetone   2.121-14
 C3H6O,propanal  4.244-14
 C3H7,n-propyl   4.280-12
 C3H7,i-propyl   2.398-12
 C3H8            1.618-13
 C3O2            2.4289-7
 *C4             1.0321-4
 C4H2,butadiyne  1.0150-2
 C4H4,1,3-cyclo- 9.0641-9
 C4H6,butadiene  4.9909-9
 C4H6,1butyne    7.252-10
 C4H6,2butyne    3.004-10
 C4H6,cyclo-     1.552-11
 C4H8,1-butene   2.806-13
 C4H8,cis2-buten 7.898-14
 C4H8,tr2-butene 9.045-14
 C4H8,isobutene  8.398-14
 C4H8,cyclo-     3.744-16
 C4H9,n-butyl    4.657-16
 C4H9,i-butyl    2.016-16
 C4H9,s-butyl    2.817-16
 *C5             5.4134-4
 C5H6,1,3cyclo-  7.928-11
 C5H8,cyclo-     4.466-15
 C6H2            1.4261-3
 C6H5,phenyl     4.070-10
 C6H5O,phenoxy   7.511-15
 C6H6            6.395-11
 C6H5OH,phenol   1.421-15
 C7H7,benzyl     6.391-13
 C7H8            1.529-14
 C8H8,styrene    1.019-14
 C10H8,naphthale 5.451-16
 *H              9.6301-2
 HCO             7.1263-5
 HCCO            1.2381-5
 HO2             1.258-13
 *H2             2.5094-1
 HCHO,formaldehy 2.0220-6
 HCOOH           1.232-10
 H2O             1.6578-5
 H2O2            1.946-14
 *O              7.4487-7
 *OH             3.6499-6
 *O2             1.866-11

  * THERMODYNAMIC PROPERTIES FITTED TO 20000.K


                     DETONATION PROPERTIES OF AN IDEAL REACTING GAS
 CASE =                

             REACTANT                       MOLES         ENERGY      TEMP
                                                         KJ/KG-MOL      K
 FUEL        C2H2,acetylene               1.0000000    228281.530    300.000
 OXIDANT     O2                           2.5000000        54.358    300.000

 O/F=    0.80853  %FUEL= 55.293619  R,EQ.RATIO= 3.800000  PHI,EQ.RATIO= 3.800000

 UNBURNED GAS

 P1, BAR           1.0000
 T1, K             300.00
 H1, KJ/KG        4848.62
 M1, (1/n)         28.403
 GAMMA1            1.2774
 SON VEL1,M/SEC     334.9

 BURNED GAS

 P, BAR            34.233
 T, K             3774.54
 RHO, KG/CU M    2.0894 0
 H, KJ/KG         7103.20
 U, KJ/KG         5464.75
 G, KJ/KG        -41868.8
 S, KJ/(KG)(K)    12.9743

 M, (1/n)          19.154
 MW, MOL WT        19.154
 (dLV/dLP)t      -1.03233
 (dLV/dLT)p        1.4914
 Cp, KJ/(KG)(K)    5.6031
 GAMMAs            1.1628
 SON VEL,M/SEC     1380.3

 DETONATION PARAMETERS

 P/P1              34.233
 T/T1              12.582
 M/M1              0.6744
 RHO/RHO1          1.8349
 DET MACH NUMBER   7.5615
 DET VEL,M/SEC     2532.6

 MOLE FRACTIONS

 *C              4.8600-4
 *CH             2.3379-4
 CH2             3.4490-4
 CH3             4.0823-4
 CH2OH           2.5489-9
 CH3O            9.222-10
 CH4             9.5583-5
 CH3OH           1.582-10
 *CO             5.3500-1
 *CO2            3.8646-6
 COOH            7.742-10
 *C2             6.4107-4
 C2H             1.2616-2
 C2H2,acetylene  8.4788-2
 C2H2,vinylidene 1.0821-3
 CH2CO,ketene    1.4633-5
 O(CH)2O         4.902-12
 C2H3,vinyl      1.0252-4
 CH3CO,acetyl    2.7384-8
 C2H4            2.7951-5
 C2H4O,ethylen-o 1.360-12
 CH3CHO,ethanal  6.163-10
 CH3COOH         7.003-15
 C2H5            6.2237-8
 C2H6            2.6345-9
 C2H5OH          2.155-14
 CH3OCH3         6.660-16
 C2O             1.0027-4
 *C3             5.2596-3
 C3H3,1-propynl  2.3855-6
 C3H3,2-propynl  5.8552-4
 C3H4,allene     5.5983-6
 C3H4,propyne    1.1190-5
 C3H4,cyclo-     2.7083-7
 C3H5,allyl      8.1263-8
 C3H6,propylene  5.2136-9
 C3H6,cyclo-     5.593-11
 C3H6O,propylox  1.609-16
 C3H6O,acetone   2.424-14
 C3H6O,propanal  4.787-14
 C3H7,n-propyl   5.039-12
 C3H7,i-propyl   2.836-12
 C3H8            2.021-13
 C3O2            2.3865-7
 *C4             9.9678-5
 C4H2,butadiyne  1.1703-2
 C4H4,1,3-cyclo- 1.0579-8
 C4H6,butadiene  6.0851-9
 C4H6,1butyne    9.008-10
 C4H6,2butyne    3.749-10
 C4H6,cyclo-     1.924-11
 C4H8,1-butene   3.632-13
 C4H8,cis2-buten 1.026-13
 C4H8,tr2-butene 1.175-13
 C4H8,isobutene  1.093-13
 C4H8,cyclo-     4.783-16
 C4H9,n-butyl    5.867-16
 C4H9,i-butyl    2.546-16
 C4H9,s-butyl    3.552-16
 *C5             5.5841-4
 C5H6,1,3cyclo-  1.060-10
 C5H8,cyclo-     6.094-15
 C6H2            1.7553-3
 C6H5,phenyl     5.500-10
 C6H5O,phenoxy   9.670-15
 C6H6            9.322-11
 C6H5OH,phenol   1.909-15
 C7H7,benzyl     9.484-13
 C7H8            2.388-14
 C8H8,styrene    1.675-14
 C10H8,naphthale 1.008-15
 *H              9.0625-2
 HCO             6.7003-5
 HCCO            1.1921-5
 HO2             9.666-14
 *H2             2.5335-1
 HCHO,formaldehy 1.9849-6
 HCOOH           1.143-10
 H2O             1.5831-5
 H2O2            1.562-14
 *O              6.0871-7
 *OH             3.1935-6
 *O2             1.445-11

  * THERMODYNAMIC PROPERTIES FITTED TO 20000.K