
 *******************************************************************************

         NASA-GLENN CHEMICAL EQUILIBRIUM PROGRAM CEA2, MAY 21, 2004
                   BY  BONNIE MCBRIDE AND SANFORD GORDON
      REFS: NASA RP-1311, PART I, 1994 AND NASA RP-1311, PART II, 1996

 *******************************************************************************



 problem    phi,eq.ratio=3.7,3.8,3.9,4,
       det   t,k=300,  p,bar=1,
 react
   fuel=C2H2,acetylene moles=1 t,k=300
   oxid=O2 moles=2.5 t,k=300
   oxid=N2 moles=9.4048 t,k=300
 output
      trace=1e-16 siunits short
 end


                     DETONATION PROPERTIES OF AN IDEAL REACTING GAS
 CASE =                

             REACTANT                       MOLES         ENERGY      TEMP
                                                         KJ/KG-MOL      K
 FUEL        C2H2,acetylene               1.0000000    228281.530    300.000
 OXIDANT     O2                           2.5000000        54.358    300.000
 OXIDANT     N2                           9.4048000        53.881    300.000

 O/F=    3.56513  %FUEL= 21.905173  R,EQ.RATIO= 3.700000  PHI,EQ.RATIO= 3.700000

 UNBURNED GAS

 P1, BAR           1.0000
 T1, K             300.00
 H1, KJ/KG        1921.99
 M1, (1/n)         28.183
 GAMMA1            1.3406
 SON VEL1,M/SEC     344.5

 BURNED GAS

 P, BAR            20.741
 T, K             2922.14
 RHO, KG/CU M    2.0623 0
 H, KJ/KG         3274.22
 U, KJ/KG         2268.49
 G, KJ/KG        -26779.0
 S, KJ/(KG)(K)    10.2847

 M, (1/n)          24.158
 MW, MOL WT        22.944
 (dLV/dLP)t      -1.00289
 (dLV/dLT)p        1.0514
 Cp, KJ/(KG)(K)    2.8010
 GAMMAs            1.1533
 SON VEL,M/SEC     1077.0

 DETONATION PARAMETERS

 P/P1              20.741
 T/T1               9.740
 M/M1              0.8572
 RHO/RHO1          1.8252
 DET MACH NUMBER   5.7070
 DET VEL,M/SEC     1965.8

 MOLE FRACTIONS

 *C              1.0838-6
 *CH             1.0068-6
 CH2             6.7468-6
 CH3             4.7341-5
 CH2OH           1.237-10
 CH3O            2.776-11
 CH4             4.4221-5
 CH3OH           2.509-11
 *CN             3.2004-4
 CNN             2.855-10
 *CO             2.6082-1
 *CO2            2.0662-6
 COOH            4.876-11
 *C2             5.9936-7
 C2H             7.9201-5
 C2H2,acetylene  7.4775-3
 C2H2,vinylidene 1.9612-5
 CH2CO,ketene    1.5720-6
 O(CH)2O         1.917-13
 C2H3,vinyl      3.2061-6
 CH3CN           5.5389-6
 CH3CO,acetyl    1.1725-9
 C2H4            5.0877-6
 C2H4O,ethylen-o 5.268-14
 CH3CHO,ethanal  7.364-11
 CH3COOH         7.414-16
 C2H5            3.8161-9
 C2H6            6.265-10
 C2H5OH          1.765-15
 CCN             5.0174-9
 CNC             5.5823-7
 OCCN            2.1010-7
 C2N2            3.1174-4
 C2O             1.1600-6
 *C3             6.0981-6
 C3H3,1-propynl  2.0643-8
 C3H3,2-propynl  1.3825-5
 C3H4,allene     2.9224-7
 C3H4,propyne    6.2713-7
 C3H4,cyclo-     6.3926-9
 C3H5,allyl      3.1043-9
 C3H6,propylene  5.030-10
 C3H6,cyclo-     3.677-12
 C3H6O,acetone   1.863-15
 C3H6O,propanal  2.556-15
 C3H7,n-propyl   1.410-13
 C3H7,i-propyl   8.980-14
 C3H8            2.235-14
 CNCOCN          6.553-11
 C3O2            8.9710-9
 *C4             1.6211-8
 C4H2,butadiyne  1.5352-4
 C4H4,1,3-cyclo- 9.822-11
 C4H6,butadiene  1.406-10
 C4H6,1butyne    2.428-11
 C4H6,2butyne    1.206-11
 C4H6,cyclo-     5.155-13
 C4H8,1-butene   1.642-14
 C4H8,cis2-buten 5.192-15
 C4H8,tr2-butene 5.893-15
 C4H8,isobutene  5.781-15
 C4N2            5.1907-6
 *C5             8.7069-8
 C5H6,1,3cyclo-  3.701-12
 C5H8,cyclo-     1.945-16
 C6H2            3.3375-6
 C6H5,phenyl     5.476-12
 C6H5O,phenoxy   1.107-16
 C6H6            5.846-12
 C7H7,benzyl     1.054-14
 C7H8            8.051-16
 C8H8,styrene    2.919-16
 *H              1.0287-2
 HCN             4.9882-2
 HCO             4.8512-6
 HCCN            1.7981-8
 HCCO            2.5529-7
 HNC             8.1364-3
 HNCO            8.0978-7
 HNO             2.498-11
 HO2             6.622-16
 *H2             1.5094-1
 HCHO,formaldehy 3.5299-7
 HCOOH           1.843-11
 H2O             8.6539-6
 H2O2            2.627-16
 *N              1.2074-6
 NCO             4.2461-8
 *NH             1.2205-6
 NH2             1.8647-6
 NH3             6.3044-6
 NH2OH           2.210-14
 *NO             3.0337-8
 *N2             4.6114-1
 NCN             2.9520-8
 N2H2            2.887-10
 N2H4            7.963-14
 N2O             6.134-12
 N3              1.312-11
 N3H             1.371-11
 *O              7.7207-9
 *OH             1.9988-7
 *O2             1.759-13
 C(gr)           5.0251-2

  * THERMODYNAMIC PROPERTIES FITTED TO 20000.K


                     DETONATION PROPERTIES OF AN IDEAL REACTING GAS
 CASE =                

             REACTANT                       MOLES         ENERGY      TEMP
                                                         KJ/KG-MOL      K
 FUEL        C2H2,acetylene               1.0000000    228281.530    300.000
 OXIDANT     O2                           2.5000000        54.358    300.000
 OXIDANT     N2                           9.4048000        53.881    300.000

 O/F=    3.47131  %FUEL= 22.364798  R,EQ.RATIO= 3.800000  PHI,EQ.RATIO= 3.800000

 UNBURNED GAS

 P1, BAR           1.0000
 T1, K             300.00
 H1, KJ/KG        1962.28
 M1, (1/n)         28.170
 GAMMA1            1.3396
 SON VEL1,M/SEC     344.4

 BURNED GAS

 P, BAR            20.752
 T, K             2924.10
 RHO, KG/CU M    2.0626 0
 H, KJ/KG         3315.60
 U, KJ/KG         2309.50
 G, KJ/KG        -26788.3
 S, KJ/(KG)(K)    10.2951

 M, (1/n)          24.165
 MW, MOL WT        22.757
 (dLV/dLP)t      -1.00295
 (dLV/dLT)p        1.0523
 Cp, KJ/(KG)(K)    2.8289
 GAMMAs            1.1517
 SON VEL,M/SEC     1076.5

 DETONATION PARAMETERS

 P/P1              20.752
 T/T1               9.747
 M/M1              0.8578
 RHO/RHO1          1.8264
 DET MACH NUMBER   5.7086
 DET VEL,M/SEC     1966.1

 MOLE FRACTIONS

 *C              1.0954-6
 *CH             1.0258-6
 CH2             6.9137-6
 CH3             4.8746-5
 CH2OH           1.265-10
 CH3O            2.845-11
 CH4             4.5799-5
 CH3OH           2.585-11
 *CN             3.1995-4
 CNN             2.862-10
 *CO             2.5717-1
 *CO2            2.0188-6
 COOH            4.843-11
 *C2             6.0745-7
 C2H             8.0627-5
 C2H2,acetylene  7.6291-3
 C2H2,vinylidene 2.0105-5
 CH2CO,ketene    1.5890-6
 O(CH)2O         1.926-13
 C2H3,vinyl      3.3146-6
 CH3CN           5.6739-6
 CH3CO,acetyl    1.2004-9
 C2H4            5.2854-6
 C2H4O,ethylen-o 5.449-14
 CH3CHO,ethanal  7.593-11
 CH3COOH         7.580-16
 C2H5            4.0176-9
 C2H6            6.636-10
 C2H5OH          1.859-15
 CCN             5.0666-9
 CNC             5.6188-7
 OCCN            2.0838-7
 C2N2            3.0968-4
 C2O             1.1567-6
 *C3             6.1780-6
 C3H3,1-propynl  2.1427-8
 C3H3,2-propynl  1.4307-5
 C3H4,allene     3.0478-7
 C3H4,propyne    6.5390-7
 C3H4,cyclo-     6.6825-9
 C3H5,allyl      3.2732-9
 C3H6,propylene  5.342-10
 C3H6,cyclo-     3.910-12
 C3H6O,acetone   1.963-15
 C3H6O,propanal  2.696-15
 C3H7,n-propyl   1.518-13
 C3H7,i-propyl   9.668-14
 C3H8            2.421-14
 CNCOCN          6.488-11
 C3O2            8.8376-9
 *C4             1.6521-8
 C4H2,butadiyne  1.5758-4
 C4H4,1,3-cyclo- 1.030-10
 C4H6,butadiene  1.499-10
 C4H6,1butyne    2.590-11
 C4H6,2butyne    1.286-11
 C4H6,cyclo-     5.497-13
 C4H8,1-butene   1.784-14
 C4H8,cis2-buten 5.639-15
 C4H8,tr2-butene 6.401-15
 C4H8,isobutene  6.277-15
 C4N2            5.1871-6
 *C5             8.8764-8
 C5H6,1,3cyclo-  3.944-12
 C5H8,cyclo-     2.116-16
 C6H2            3.4466-6
 C6H5,phenyl     5.799-12
 C6H5O,phenoxy   1.162-16
 C6H6            6.220-12
 C7H7,benzyl     1.139-14
 C7H8            8.759-16
 C8H8,styrene    3.184-16
 *H              1.0379-2
 HCN             5.0029-2
 HCO             4.8593-6
 HCCN            1.8275-8
 HCCO            2.5668-7
 HNC             8.1742-3
 HNCO            8.0525-7
 HNO             2.500-11
 HO2             6.620-16
 *H2             1.5308-1
 HCHO,formaldehy 3.5620-7
 HCOOH           1.844-11
 H2O             8.7021-6
 H2O2            2.645-16
 *N              1.2089-6
 NCO             4.2034-8
 *NH             1.2319-6
 NH2             1.8950-6
 NH3             6.4389-6
 NH2OH           2.254-14
 *NO             2.9999-8
 *N2             4.5419-1
 NCN             2.9481-8
 N2H2            2.928-10
 N2H4            8.236-14
 N2O             6.048-12
 N3              1.304-11
 N3H             1.373-11
 *O              7.6935-9
 *OH             2.0025-7
 *O2             1.738-13
 C(gr)           5.8276-2

  * THERMODYNAMIC PROPERTIES FITTED TO 20000.K


                     DETONATION PROPERTIES OF AN IDEAL REACTING GAS
 CASE =                

             REACTANT                       MOLES         ENERGY      TEMP
                                                         KJ/KG-MOL      K
 FUEL        C2H2,acetylene               1.0000000    228281.530    300.000
 OXIDANT     O2                           2.5000000        54.358    300.000
 OXIDANT     N2                           9.4048000        53.881    300.000

 O/F=    3.38230  %FUEL= 22.819045  R,EQ.RATIO= 3.900000  PHI,EQ.RATIO= 3.900000

 UNBURNED GAS

 P1, BAR           1.0000
 T1, K             300.00
 H1, KJ/KG        2002.10
 M1, (1/n)         28.156
 GAMMA1            1.3386
 SON VEL1,M/SEC     344.4

 BURNED GAS

 P, BAR            20.763
 T, K             2926.02
 RHO, KG/CU M    2.0629 0
 H, KJ/KG         3356.48
 U, KJ/KG         2350.02
 G, KJ/KG        -26797.3
 S, KJ/(KG)(K)    10.3054

 M, (1/n)          24.172
 MW, MOL WT        22.575
 (dLV/dLP)t      -1.00300
 (dLV/dLT)p        1.0532
 Cp, KJ/(KG)(K)    2.8563
 GAMMAs            1.1502
 SON VEL,M/SEC     1075.9

 DETONATION PARAMETERS

 P/P1              20.763
 T/T1               9.753
 M/M1              0.8585
 RHO/RHO1          1.8275
 DET MACH NUMBER   5.7100
 DET VEL,M/SEC     1966.3

 MOLE FRACTIONS

 *C              1.1068-6
 *CH             1.0447-6
 CH2             7.0792-6
 CH3             5.0141-5
 CH2OH           1.294-10
 CH3O            2.912-11
 CH4             4.7372-5
 CH3OH           2.659-11
 *CN             3.1983-4
 CNN             2.868-10
 *CO             2.5362-1
 *CO2            1.9731-6
 COOH            4.809-11
 *C2             6.1548-7
 C2H             8.2037-5
 C2H2,acetylene  7.7784-3
 C2H2,vinylidene 2.0595-5
 CH2CO,ketene    1.6051-6
 O(CH)2O         1.935-13
 C2H3,vinyl      3.4231-6
 CH3CN           5.8064-6
 CH3CO,acetyl    1.2277-9
 C2H4            5.4835-6
 C2H4O,ethylen-o 5.630-14
 CH3CHO,ethanal  7.819-11
 CH3COOH         7.740-16
 C2H5            4.2224-9
 C2H6            7.014-10
 C2H5OH          1.954-15
 CCN             5.1149-9
 CNC             5.6544-7
 OCCN            2.0667-7
 C2N2            3.0764-4
 C2O             1.1533-6
 *C3             6.2572-6
 C3H3,1-propynl  2.2215-8
 C3H3,2-propynl  1.4790-5
 C3H4,allene     3.1740-7
 C3H4,propyne    6.8084-7
 C3H4,cyclo-     6.9753-9
 C3H5,allyl      3.4452-9
 C3H6,propylene  5.663-10
 C3H6,cyclo-     4.150-12
 C3H6O,acetone   2.064-15
 C3H6O,propanal  2.838-15
 C3H7,n-propyl   1.631-13
 C3H7,i-propyl   1.038-13
 C3H8            2.616-14
 CNCOCN          6.424-11
 C3O2            8.7071-9
 *C4             1.6829-8
 C4H2,butadiyne  1.6161-4
 C4H4,1,3-cyclo- 1.078-10
 C4H6,butadiene  1.594-10
 C4H6,1butyne    2.756-11
 C4H6,2butyne    1.367-11
 C4H6,cyclo-     5.849-13
 C4H8,1-butene   1.932-14
 C4H8,cis2-buten 6.108-15
 C4H8,tr2-butene 6.933-15
 C4H8,isobutene  6.798-15
 C4N2            5.1830-6
 *C5             9.0454-8
 C5H6,1,3cyclo-  4.194-12
 C5H8,cyclo-     2.295-16
 C6H2            3.5558-6
 C6H5,phenyl     6.131-12
 C6H5O,phenoxy   1.217-16
 C6H6            6.605-12
 C7H7,benzyl     1.227-14
 C7H8            9.502-16
 C8H8,styrene    3.462-16
 *H              1.0468-2
 HCN             5.0164-2
 HCO             4.8660-6
 HCCN            1.8563-8
 HCCO            2.5798-7
 HNC             8.2097-3
 HNCO            8.0061-7
 HNO             2.502-11
 HO2             6.615-16
 *H2             1.5517-1
 HCHO,formaldehy 3.5925-7
 HCOOH           1.844-11
 H2O             8.7463-6
 H2O2            2.663-16
 *N              1.2102-6
 NCO             4.1613-8
 *NH             1.2430-6
 NH2             1.9245-6
 NH3             6.5703-6
 NH2OH           2.297-14
 *NO             2.9668-8
 *N2             4.4743-1
 NCN             2.9440-8
 N2H2            2.968-10
 N2H4            8.507-14
 N2O             5.963-12
 N3              1.297-11
 N3H             1.375-11
 *O              7.6663-9
 *OH             2.0058-7
 *O2             1.717-13
 C(gr)           6.6085-2

  * THERMODYNAMIC PROPERTIES FITTED TO 20000.K


                     DETONATION PROPERTIES OF AN IDEAL REACTING GAS
 CASE =                

             REACTANT                       MOLES         ENERGY      TEMP
                                                         KJ/KG-MOL      K
 FUEL        C2H2,acetylene               1.0000000    228281.530    300.000
 OXIDANT     O2                           2.5000000        54.358    300.000
 OXIDANT     N2                           9.4048000        53.881    300.000

 O/F=    3.29775  %FUEL= 23.268007  R,EQ.RATIO= 4.000000  PHI,EQ.RATIO= 4.000000

 UNBURNED GAS

 P1, BAR           1.0000
 T1, K             300.00
 H1, KJ/KG        2041.46
 M1, (1/n)         28.143
 GAMMA1            1.3376
 SON VEL1,M/SEC     344.3

 BURNED GAS

 P, BAR            20.773
 T, K             2927.90
 RHO, KG/CU M    2.0632 0
 H, KJ/KG         3396.87
 U, KJ/KG         2390.05
 G, KJ/KG        -26805.9
 S, KJ/(KG)(K)    10.3155

 M, (1/n)          24.179
 MW, MOL WT        22.398
 (dLV/dLP)t      -1.00305
 (dLV/dLT)p        1.0540
 Cp, KJ/(KG)(K)    2.8834
 GAMMAs            1.1487
 SON VEL,M/SEC     1075.4

 DETONATION PARAMETERS

 P/P1              20.773
 T/T1               9.760
 M/M1              0.8592
 RHO/RHO1          1.8286
 DET MACH NUMBER   5.7115
 DET VEL,M/SEC     1966.6

 MOLE FRACTIONS

 *C              1.1182-6
 *CH             1.0634-6
 CH2             7.2432-6
 CH3             5.1527-5
 CH2OH           1.321-10
 CH3O            2.978-11
 CH4             4.8940-5
 CH3OH           2.732-11
 *CN             3.1971-4
 CNN             2.874-10
 *CO             2.5017-1
 *CO2            1.9289-6
 COOH            4.775-11
 *C2             6.2344-7
 C2H             8.3431-5
 C2H2,acetylene  7.9255-3
 C2H2,vinylidene 2.1080-5
 CH2CO,ketene    1.6206-6
 O(CH)2O         1.942-13
 C2H3,vinyl      3.5314-6
 CH3CN           5.9367-6
 CH3CO,acetyl    1.2545-9
 C2H4            5.6819-6
 C2H4O,ethylen-o 5.809-14
 CH3CHO,ethanal  8.042-11
 CH3COOH         7.895-16
 C2H5            4.4303-9
 C2H6            7.400-10
 C2H5OH          2.050-15
 CCN             5.1624-9
 CNC             5.6892-7
 OCCN            2.0498-7
 C2N2            3.0563-4
 C2O             1.1499-6
 *C3             6.3358-6
 C3H3,1-propynl  2.3005-8
 C3H3,2-propynl  1.5272-5
 C3H4,allene     3.3010-7
 C3H4,propyne    7.0795-7
 C3H4,cyclo-     7.2708-9
 C3H5,allyl      3.6201-9
 C3H6,propylene  5.991-10
 C3H6,cyclo-     4.395-12
 C3H6O,acetone   2.167-15
 C3H6O,propanal  2.981-15
 C3H7,n-propyl   1.748-13
 C3H7,i-propyl   1.112-13
 C3H8            2.819-14
 CNCOCN          6.360-11
 C3O2            8.5794-9
 *C4             1.7137-8
 C4H2,butadiyne  1.6562-4
 C4H4,1,3-cyclo- 1.127-10
 C4H6,butadiene  1.693-10
 C4H6,1butyne    2.927-11
 C4H6,2butyne    1.451-11
 C4H6,cyclo-     6.211-13
 C4H8,1-butene   2.088-14
 C4H8,cis2-buten 6.598-15
 C4H8,tr2-butene 7.489-15
 C4H8,isobutene  7.342-15
 C4N2            5.1784-6
 *C5             9.2139-8
 C5H6,1,3cyclo-  4.451-12
 C5H8,cyclo-     2.483-16
 C6H2            3.6652-6
 C6H5,phenyl     6.470-12
 C6H5O,phenoxy   1.273-16
 C6H6            6.999-12
 C7H7,benzyl     1.320-14
 C7H8            1.028-15
 C8H8,styrene    3.755-16
 *H              1.0554-2
 HCN             5.0287-2
 HCO             4.8716-6
 HCCN            1.8847-8
 HCCO            2.5921-7
 HNC             8.2432-3
 HNCO            7.9587-7
 HNO             2.502-11
 HO2             6.608-16
 *H2             1.5719-1
 HCHO,formaldehy 3.6213-7
 HCOOH           1.843-11
 H2O             8.7868-6
 H2O2            2.678-16
 *N              1.2115-6
 NCO             4.1198-8
 *NH             1.2536-6
 NH2             1.9533-6
 NH3             6.6987-6
 NH2OH           2.339-14
 *NO             2.9342-8
 *N2             4.4086-1
 NCN             2.9397-8
 N2H2            3.006-10
 N2H4            8.776-14
 N2O             5.880-12
 N3              1.289-11
 N3H             1.377-11
 *O              7.6389-9
 *OH             2.0085-7
 *O2             1.696-13
 C(gr)           7.3685-2

  * THERMODYNAMIC PROPERTIES FITTED TO 20000.K



