
 *******************************************************************************

         NASA-GLENN CHEMICAL EQUILIBRIUM PROGRAM CEA2, MAY 21, 2004
                   BY  BONNIE MCBRIDE AND SANFORD GORDON
      REFS: NASA RP-1311, PART I, 1994 AND NASA RP-1311, PART II, 1996

 *******************************************************************************



 problem    phi,eq.ratio=0.5,0.6,0.7,0.8,0.9,1,1.1,1.2,1.3,1.4,1.5,1.6,1.7,1.8,1.
 9,2,
       det   t,k=300,  p,bar=1,
 react
   fuel=C2H2,acetylene moles=1 t,k=300
   oxid=O2 moles=2.5 t,k=300
   oxid=N2 moles=9.4048 t,k=300
 output
      trace=1e-16 siunits short
 end


                     DETONATION PROPERTIES OF AN IDEAL REACTING GAS
 CASE =                

             REACTANT                       MOLES         ENERGY      TEMP
                                                         KJ/KG-MOL      K
 FUEL        C2H2,acetylene               1.0000000    228281.530    300.000
 OXIDANT     O2                           2.5000000        54.358    300.000
 OXIDANT     N2                           9.4048000        53.881    300.000

 O/F=   26.38197  %FUEL=  3.652038  R,EQ.RATIO= 0.500000  PHI,EQ.RATIO= 0.500000

 UNBURNED GAS

 P1, BAR           1.0000
 T1, K             300.00
 H1, KJ/KG         321.99
 M1, (1/n)         28.737
 GAMMA1            1.3873
 SON VEL1,M/SEC     347.0

 BURNED GAS

 P, BAR            13.655
 T, K             2378.93
 RHO, KG/CU M    2.0210 0
 H, KJ/KG         1184.28
 U, KJ/KG          508.65
 G, KJ/KG        -19219.1
 S, KJ/(KG)(K)     8.5767

 M, (1/n)          29.276
 (dLV/dLP)t      -1.00072
 (dLV/dLT)p        1.0202
 Cp, KJ/(KG)(K)    1.5818
 GAMMAs            1.2287
 SON VEL,M/SEC      911.1

 DETONATION PARAMETERS

 P/P1              13.655
 T/T1               7.930
 M/M1              1.0188
 RHO/RHO1          1.7542
 DET MACH NUMBER   4.6061
 DET VEL,M/SEC     1598.4

 MOLE FRACTIONS

 *CN             1.553-14
 *CO             1.3211-3
 *CO2            8.0805-2
 COOH            7.6420-9
 *H              4.0955-5
 HCN             8.831-13
 HCO             1.257-10
 HNC             8.075-14
 HNCO            8.990-11
 HNO             1.8534-7
 HNO2            6.6626-7
 HNO3            2.996-10
 HO2             7.1308-6
 *H2             1.1046-4
 HCHO,formaldehy 8.115-13
 HCOOH           2.676-10
 H2O             3.9478-2
 H2O2            2.4469-7
 *N              2.1295-8
 NCO             2.001-11
 *NH             1.4777-9
 NH2             2.436-10
 NH3             1.659-10
 NH2OH           3.056-13
 *NO             1.2270-2
 NO2             3.1448-5
 NO3             1.755-10
 *N2             7.6622-1
 N2H2            2.703-14
 N2O             2.4892-6
 N2O3            8.241-12
 N2O4            7.811-16
 N3              3.350-13
 N3H             2.893-14
 *O              6.4931-4
 *OH             2.8994-3
 *O2             9.6160-2
 O3              2.7568-8

  * THERMODYNAMIC PROPERTIES FITTED TO 20000.K


                     DETONATION PROPERTIES OF AN IDEAL REACTING GAS
 CASE =                

             REACTANT                       MOLES         ENERGY      TEMP
                                                         KJ/KG-MOL      K
 FUEL        C2H2,acetylene               1.0000000    228281.530    300.000
 OXIDANT     O2                           2.5000000        54.358    300.000
 OXIDANT     N2                           9.4048000        53.881    300.000

 O/F=   21.98498  %FUEL=  4.350668  R,EQ.RATIO= 0.600000  PHI,EQ.RATIO= 0.600000

 UNBURNED GAS

 P1, BAR           1.0000
 T1, K             300.00
 H1, KJ/KG         383.23
 M1, (1/n)         28.715
 GAMMA1            1.3852
 SON VEL1,M/SEC     346.9

 BURNED GAS

 P, BAR            15.273
 T, K             2624.21
 RHO, KG/CU M    2.0476 0
 H, KJ/KG         1351.68
 U, KJ/KG          605.78
 G, KJ/KG        -21521.5
 S, KJ/(KG)(K)     8.7162

 M, (1/n)          29.252
 (dLV/dLP)t      -1.00245
 (dLV/dLT)p        1.0618
 Cp, KJ/(KG)(K)    1.8935
 GAMMAs            1.2002
 SON VEL,M/SEC      946.2

 DETONATION PARAMETERS

 P/P1              15.273
 T/T1               8.747
 M/M1              1.0187
 RHO/RHO1          1.7786
 DET MACH NUMBER   4.8514
 DET VEL,M/SEC     1682.9

 MOLE FRACTIONS

 *C              9.050-16
 CH2OH           1.749-16
 *CN             1.081-12
 *CO             5.9411-3
 *CO2            9.1815-2
 COOH            4.2965-8
 *H              2.2982-4
 HCN             3.143-11
 HCO             2.4720-9
 HNC             3.847-12
 HNCO            9.007-10
 HNO             5.6925-7
 HNO2            8.1497-7
 HNO3            2.707-10
 HO2             1.2184-5
 *H2             4.4882-4
 HCHO,formaldehy 1.660-11
 HCOOH           1.5299-9
 H2O             4.5291-2
 H2O2            4.4140-7
 *N              1.9468-7
 NCO             3.142-10
 *NH             1.6039-8
 NH2             2.4960-9
 NH3             1.1724-9
 NH2OH           2.104-12
 *NO             1.6482-2
 NO2             3.0317-5
 NO3             1.959-10
 *N2             7.5788-1
 N2H2            3.448-13
 NH2NO2          2.849-16
 N2O             3.5294-6
 N2O3            1.067-11
 N2O4            6.938-16
 N3              2.862-12
 N3H             2.668-13
 *O              1.8068-3
 *OH             6.0316-3
 *O2             7.4021-2
 O3              4.1229-8

  * THERMODYNAMIC PROPERTIES FITTED TO 20000.K


                     DETONATION PROPERTIES OF AN IDEAL REACTING GAS
 CASE =                

             REACTANT                       MOLES         ENERGY      TEMP
                                                         KJ/KG-MOL      K
 FUEL        C2H2,acetylene               1.0000000    228281.530    300.000
 OXIDANT     O2                           2.5000000        54.358    300.000
 OXIDANT     N2                           9.4048000        53.881    300.000

 O/F=   18.84427  %FUEL=  5.039239  R,EQ.RATIO= 0.700000  PHI,EQ.RATIO= 0.700000

 UNBURNED GAS

 P1, BAR           1.0000
 T1, K             300.00
 H1, KJ/KG         443.59
 M1, (1/n)         28.694
 GAMMA1            1.3832
 SON VEL1,M/SEC     346.8

 BURNED GAS

 P, BAR            16.562
 T, K             2806.41
 RHO, KG/CU M    2.0678 0
 H, KJ/KG         1496.29
 U, KJ/KG          695.34
 G, KJ/KG        -23310.2
 S, KJ/(KG)(K)     8.8392

 M, (1/n)          29.133
 (dLV/dLP)t      -1.00533
 (dLV/dLT)p        1.1254
 Cp, KJ/(KG)(K)    2.3094
 GAMMAs            1.1781
 SON VEL,M/SEC      971.4

 DETONATION PARAMETERS

 P/P1              16.562
 T/T1               9.355
 M/M1              1.0153
 RHO/RHO1          1.7976
 DET MACH NUMBER   5.0356
 DET VEL,M/SEC     1746.1

 MOLE FRACTIONS

 *C              3.209-14
 *CH             2.811-15
 CH2             2.070-15
 CH3             1.684-15
 CH2OH           2.859-15
 CH3O            5.919-16
 CH4             1.717-16
 *CN             1.702-11
 *CO             1.5716-2
 *CO2            9.7052-2
 COOH            1.2947-7
 HO(CO)2OH       1.148-16
 OCCN            6.087-16
 C2O             2.637-15
 *H              7.0295-4
 HCN             3.385-10
 HCO             1.7261-8
 HNC             4.975-11
 HNCO            4.1348-9
 HNO             1.1366-6
 HNO2            8.5960-7
 HNO3            2.238-10
 HO2             1.5799-5
 *H2             1.1648-3
 HCHO,formaldehy 1.240-10
 HCOOH           4.8688-9
 H2O             5.0193-2
 H2O2            6.1697-7
 *N              7.7906-7
 NCO             1.8376-9
 *NH             7.4408-8
 NH2             1.1641-8
 NH3             4.5116-9
 NH2OH           7.580-12
 *NO             1.8634-2
 NO2             2.6395-5
 NO3             1.774-10
 *N2             7.4821-1
 NCN             1.532-15
 N2H2            1.866-12
 NH2NO2          6.333-16
 N2O             4.1564-6
 N2O3            1.066-11
 N2O4            5.191-16
 N3              1.105-11
 N3H             1.127-12
 *O              3.2281-3
 *OH             9.3299-3
 *O2             5.5722-2
 O3              4.5364-8

  * THERMODYNAMIC PROPERTIES FITTED TO 20000.K


                     DETONATION PROPERTIES OF AN IDEAL REACTING GAS
 CASE =                

             REACTANT                       MOLES         ENERGY      TEMP
                                                         KJ/KG-MOL      K
 FUEL        C2H2,acetylene               1.0000000    228281.530    300.000
 OXIDANT     O2                           2.5000000        54.358    300.000
 OXIDANT     N2                           9.4048000        53.881    300.000

 O/F=   16.48873  %FUEL=  5.717967  R,EQ.RATIO= 0.800000  PHI,EQ.RATIO= 0.800000

 UNBURNED GAS

 P1, BAR           1.0000
 T1, K             300.00
 H1, KJ/KG         503.09
 M1, (1/n)         28.673
 GAMMA1            1.3813
 SON VEL1,M/SEC     346.6

 BURNED GAS

 P, BAR            17.559
 T, K             2938.56
 RHO, KG/CU M    2.0797 0
 H, KJ/KG         1621.42
 U, KJ/KG          777.14
 G, KJ/KG        -24680.8
 S, KJ/(KG)(K)     8.9507

 M, (1/n)          28.939
 (dLV/dLP)t      -1.00851
 (dLV/dLT)p        1.1911
 Cp, KJ/(KG)(K)    2.7094
 GAMMAs            1.1654
 SON VEL,M/SEC      991.9

 DETONATION PARAMETERS

 P/P1              17.559
 T/T1               9.795
 M/M1              1.0093
 RHO/RHO1          1.8092
 DET MACH NUMBER   5.1771
 DET VEL,M/SEC     1794.6

 MOLE FRACTIONS

 *C              3.473-13
 *CH             3.479-14
 CH2             2.463-14
 CH3             1.813-14
 CH2OH           1.983-14
 CH3O            4.503-15
 CH4             1.791-15
 CH3OH           4.283-16
 *CN             1.089-10
 CNN             1.156-16
 *CO             2.9990-2
 *CO2            9.7115-2
 COOH            2.6490-7
 CH2CO,ketene    4.937-16
 HO(CO)2OH       2.968-16
 OCCN            6.456-15
 C2O             3.203-14
 *H              1.4967-3
 HCN             1.7578-9
 HCO             6.4104-8
 HCCO            7.613-16
 HNC             2.908-10
 HNCO            1.1719-8
 HNO             1.7455-6
 HNO2            8.2643-7
 HNO3            1.744-10
 HO2             1.7352-5
 *H2             2.3113-3
 HCHO,formaldehy 5.000-10
 HCOOH           1.0722-8
 H2O             5.4432-2
 H2O2            7.3801-7
 *N              1.9029-6
 NCO             5.8731-9
 *NH             2.0740-7
 NH2             3.3797-8
 NH3             1.2003-8
 NH2OH           1.837-11
 *NO             1.9018-2
 NO2             2.1593-5
 NO3             1.413-10
 *N2             7.3760-1
 NCN             1.159-14
 N2H2            5.990-12
 NH2NO2          1.027-15
 N2O             4.3647-6
 N2O3            9.048-12
 N2O4            3.472-16
 N3              2.638-11
 N3H             2.960-12
 *O              4.4339-3
 *OH             1.2100-2
 *O2             4.1456-2
 O3              4.1286-8

  * THERMODYNAMIC PROPERTIES FITTED TO 20000.K


                     DETONATION PROPERTIES OF AN IDEAL REACTING GAS
 CASE =                

             REACTANT                       MOLES         ENERGY      TEMP
                                                         KJ/KG-MOL      K
 FUEL        C2H2,acetylene               1.0000000    228281.530    300.000
 OXIDANT     O2                           2.5000000        54.358    300.000
 OXIDANT     N2                           9.4048000        53.881    300.000

 O/F=   14.65665  %FUEL=  6.387061  R,EQ.RATIO= 0.900000  PHI,EQ.RATIO= 0.900000

 UNBURNED GAS

 P1, BAR           1.0000
 T1, K             300.00
 H1, KJ/KG         561.74
 M1, (1/n)         28.653
 GAMMA1            1.3794
 SON VEL1,M/SEC     346.5

 BURNED GAS

 P, BAR            18.347
 T, K             3036.43
 RHO, KG/CU M    2.0855 0
 H, KJ/KG         1732.72
 U, KJ/KG          852.97
 G, KJ/KG        -25758.6
 S, KJ/(KG)(K)     9.0538

 M, (1/n)          28.697
 (dLV/dLP)t      -1.01118
 (dLV/dLT)p        1.2428
 Cp, KJ/(KG)(K)    3.0108
 GAMMAs            1.1594
 SON VEL,M/SEC     1009.9

 DETONATION PARAMETERS

 P/P1              18.347
 T/T1              10.121
 M/M1              1.0016
 RHO/RHO1          1.8155
 DET MACH NUMBER   5.2913
 DET VEL,M/SEC     1833.6

 MOLE FRACTIONS

 *C              1.888-12
 *CH             2.142-13
 CH2             1.523-13
 CH3             1.082-13
 CH2OH           8.328-14
 CH3O            2.016-14
 CH4             1.083-14
 CH3OH           1.884-15
 *CN             4.133-10
 CNN             5.864-16
 *CO             4.7237-2
 *CO2            9.3552-2
 COOH            4.2998-7
 CH2CO,ketene    3.330-15
 O(CH)2O         1.222-16
 HO(CO)2OH       5.654-16
 OCCN            3.518-14
 C2N2            1.876-16
 C2O             1.917-13
 C3O2            1.520-16
 *H              2.5834-3
 HCN             5.9693-9
 HCO             1.6451-7
 HCCO            5.196-15
 HNC             1.0704-9
 HNCO            2.4993-8
 HNO             2.2917-6
 HNO2            7.4775-7
 HNO3            1.300-10
 HO2             1.7205-5
 *H2             3.9244-3
 HCHO,formaldehy 1.4023-9
 HCOOH           1.8910-8
 H2O             5.8101-2
 H2O2            8.0115-7
 *N              3.4916-6
 NCO             1.3168-8
 *NH             4.3008-7
 NH2             7.4439-8
 NH3             2.5722-8
 NH2OH           3.514-11
 *NO             1.8247-2
 NO2             1.6936-5
 NO3             1.035-10
 *N2             7.2647-1
 NCN             4.932-14
 N2H2            1.415-11
 NH2NO2          1.374-15
 N2O             4.2716-6
 N2O3            6.919-12
 N2O4            2.146-16
 N3              4.763-11
 N3H             5.891-12
 *O              5.2183-3
 *OH             1.4134-2
 *O2             3.0482-2
 O3              3.3284-8

  * THERMODYNAMIC PROPERTIES FITTED TO 20000.K


                     DETONATION PROPERTIES OF AN IDEAL REACTING GAS
 CASE =                

             REACTANT                       MOLES         ENERGY      TEMP
                                                         KJ/KG-MOL      K
 FUEL        C2H2,acetylene               1.0000000    228281.530    300.000
 OXIDANT     O2                           2.5000000        54.358    300.000
 OXIDANT     N2                           9.4048000        53.881    300.000

 O/F=   13.19099  %FUEL=  7.046726  R,EQ.RATIO= 1.000000  PHI,EQ.RATIO= 1.000000

 UNBURNED GAS

 P1, BAR           1.0000
 T1, K             300.00
 H1, KJ/KG         619.56
 M1, (1/n)         28.632
 GAMMA1            1.3775
 SON VEL1,M/SEC     346.4

 BURNED GAS

 P, BAR            18.994
 T, K             3110.91
 RHO, KG/CU M    2.0873 0
 H, KJ/KG         1834.72
 U, KJ/KG          924.75
 G, KJ/KG        -26631.6
 S, KJ/(KG)(K)     9.1505

 M, (1/n)          28.425
 (dLV/dLP)t      -1.01298
 (dLV/dLT)p        1.2750
 Cp, KJ/(KG)(K)    3.1907
 GAMMAs            1.1575
 SON VEL,M/SEC     1026.3

 DETONATION PARAMETERS

 P/P1              18.994
 T/T1              10.370
 M/M1              0.9928
 RHO/RHO1          1.8184
 DET MACH NUMBER   5.3870
 DET VEL,M/SEC     1866.2

 MOLE FRACTIONS

 *C              6.781-12
 *CH             8.655-13
 CH2             6.355-13
 CH3             4.527-13
 CH2OH           2.575-13
 CH3O            6.534-14
 CH4             4.717-14
 CH3OH           6.205-15
 *CN             1.1448-9
 CNN             1.999-15
 *CO             6.6206-2
 *CO2            8.7651-2
 COOH            6.0326-7
 C2H2,acetylene  4.367-16
 CH2CO,ketene    1.500-14
 O(CH)2O         4.123-16
 HO(CO)2OH       8.850-16
 OCCN            1.282-13
 C2N2            8.886-16
 C2O             7.485-13
 C3O2            6.766-16
 *H              3.9250-3
 HCN             1.5715-8
 HCO             3.3707-7
 HCCO            2.294-14
 HNC             2.9859-9
 HNCO            4.4808-8
 HNO             2.7209-6
 HNO2            6.4600-7
 HNO3            9.295-11
 HO2             1.5887-5
 *H2             6.0631-3
 HCHO,formaldehy 3.1531-9
 HCOOH           2.8995-8
 H2O             6.1179-2
 H2O2            8.1259-7
 *N              5.3811-6
 NCO             2.3779-8
 *NH             7.4480-7
 NH2             1.3857-7
 NH3             4.8324-8
 NH2OH           5.793-11
 *NO             1.6784-2
 NO2             1.2829-5
 NO3             7.101-11
 *N2             7.1510-1
 NCN             1.482-13
 N2H2            2.769-11
 NH2NO2          1.618-15
 N2H4            1.940-16
 N2O             3.9844-6
 N2O3            4.893-12
 N2O4            1.239-16
 N3              7.243-11
 N3H             9.892-12
 *O              5.5655-3
 *OH             1.5427-2
 *O2             2.2057-2
 O3              2.4549-8

  * THERMODYNAMIC PROPERTIES FITTED TO 20000.K


                     DETONATION PROPERTIES OF AN IDEAL REACTING GAS
 CASE =                

             REACTANT                       MOLES         ENERGY      TEMP
                                                         KJ/KG-MOL      K
 FUEL        C2H2,acetylene               1.0000000    228281.530    300.000
 OXIDANT     O2                           2.5000000        54.358    300.000
 OXIDANT     N2                           9.4048000        53.881    300.000

 O/F=   11.99181  %FUEL=  7.697159  R,EQ.RATIO= 1.100000  PHI,EQ.RATIO= 1.100000

 UNBURNED GAS

 P1, BAR           1.0000
 T1, K             300.00
 H1, KJ/KG         676.57
 M1, (1/n)         28.612
 GAMMA1            1.3757
 SON VEL1,M/SEC     346.3

 BURNED GAS

 P, BAR            19.536
 T, K             3168.01
 RHO, KG/CU M    2.0868 0
 H, KJ/KG         1928.69
 U, KJ/KG          992.49
 G, KJ/KG        -27348.3
 S, KJ/(KG)(K)     9.2414

 M, (1/n)          28.135
 (dLV/dLP)t      -1.01388
 (dLV/dLT)p        1.2882
 Cp, KJ/(KG)(K)    3.2586
 GAMMAs            1.1582
 SON VEL,M/SEC     1041.3

 DETONATION PARAMETERS

 P/P1              19.536
 T/T1              10.560
 M/M1              0.9833
 RHO/RHO1          1.8192
 DET MACH NUMBER   5.4701
 DET VEL,M/SEC     1894.4

 MOLE FRACTIONS

 *C              1.853-11
 *CH             2.654-12
 CH2             2.051-12
 CH3             1.507-12
 CH2OH           6.510-13
 CH3O            1.710-13
 CH4             1.664-13
 CH3OH           1.690-14
 *CN             2.5836-9
 CNN             5.252-15
 *CO             8.5985-2
 *CO2            8.0362-2
 COOH            7.6540-7
 C2H             2.948-16
 C2H2,acetylene  2.163-15
 CH2CO,ketene    5.210-14
 O(CH)2O         1.098-15
 HO(CO)2OH       1.208-15
 OCCN            3.599-13
 C2N2            3.184-15
 C2O             2.211-12
 C3O2            2.238-15
 *H              5.4753-3
 HCN             3.5139-8
 HCO             5.9525-7
 HCCO            7.631-14
 HNC             6.9663-9
 HNCO            7.1680-8
 HNO             3.0032-6
 HNO2            5.3540-7
 HNO3            6.362-11
 HO2             1.3839-5
 *H2             8.8064-3
 HCHO,formaldehy 6.1331-9
 HCOOH           4.0397-8
 H2O             6.3613-2
 H2O2            7.8003-7
 *N              7.3687-6
 NCO             3.7180-8
 *NH             1.1428-6
 NH2             2.3064-7
 NH3             8.3294-8
 NH2OH           8.610-11
 *NO             1.4923-2
 NO2             9.3845-6
 NO3             4.583-11
 *N2             7.0365-1
 NCN             3.547-13
 N2H2            4.781-11
 NH2NO2          1.731-15
 N2H4            4.577-16
 N2O             3.5770-6
 N2O3            3.227-12
 N3              9.806-11
 N3H             1.482-11
 *O              5.5220-3
 *OH             1.6012-2
 *O2             1.5614-2
 O3              1.6748-8

  * THERMODYNAMIC PROPERTIES FITTED TO 20000.K


                     DETONATION PROPERTIES OF AN IDEAL REACTING GAS
 CASE =                

             REACTANT                       MOLES         ENERGY      TEMP
                                                         KJ/KG-MOL      K
 FUEL        C2H2,acetylene               1.0000000    228281.530    300.000
 OXIDANT     O2                           2.5000000        54.358    300.000
 OXIDANT     N2                           9.4048000        53.881    300.000

 O/F=   10.99249  %FUEL=  8.338552  R,EQ.RATIO= 1.200000  PHI,EQ.RATIO= 1.200000

 UNBURNED GAS

 P1, BAR           1.0000
 T1, K             300.00
 H1, KJ/KG         732.80
 M1, (1/n)         28.593
 GAMMA1            1.3739
 SON VEL1,M/SEC     346.2

 BURNED GAS

 P, BAR            19.998
 T, K             3211.81
 RHO, KG/CU M    2.0844 0
 H, KJ/KG         2017.17
 U, KJ/KG         1057.75
 G, KJ/KG        -27942.0
 S, KJ/(KG)(K)     9.3278

 M, (1/n)          27.834
 (dLV/dLP)t      -1.01400
 (dLV/dLT)p        1.2859
 Cp, KJ/(KG)(K)    3.2369
 GAMMAs            1.1609
 SON VEL,M/SEC     1055.4

 DETONATION PARAMETERS

 P/P1              19.998
 T/T1              10.706
 M/M1              0.9735
 RHO/RHO1          1.8183
 DET MACH NUMBER   5.5429
 DET VEL,M/SEC     1919.0

 MOLE FRACTIONS

 *C              4.203-11
 *CH             6.742-12
 CH2             5.569-12
 CH3             4.304-12
 CH2OH           1.432-12
 CH3O            3.862-13
 CH4             5.108-13
 CH3OH           4.044-14
 *CN             5.0776-9
 CNN             1.154-14
 *CO             1.0600-1
 *CO2            7.2277-2
 COOH            9.0127-7
 C2H             1.182-15
 C2H2,acetylene  8.697-15
 CH2CO,ketene    1.520-13
 O(CH)2O         2.487-15
 HO(CO)2OH       1.485-15
 OCCN            8.464-13
 C2N2            9.495-15
 C2O             5.408-12
 C3O2            6.057-15
 *H              7.1944-3
 HCN             7.0542-8
 HCO             9.4831-7
 HCCO            2.096-13
 HNC             1.4433-8
 HNCO            1.0601-7
 HNO             3.1306-6
 HNO2            4.2614-7
 HNO3            4.151-11
 HO2             1.1441-5
 *H2             1.2263-2
 HCHO,formaldehy 1.0798-8
 HCOOH           5.2452-8
 H2O             6.5291-2
 H2O2            7.1287-7
 *N              9.2758-6
 NCO             5.2563-8
 *NH             1.6101-6
 NH2             3.5502-7
 NH3             1.3535-7
 NH2OH           1.184-10
 *NO             1.2876-2
 NO2             6.6192-6
 NO3             2.783-11
 *N2             6.9217-1
 NCN             7.275-13
 N2H2            7.557-11
 NH2NO2          1.712-15
 N2H4            9.647-16
 N2O             3.1060-6
 N2O3            1.989-12
 N3              1.222-10
 N3H             2.046-11
 *O              5.1747-3
 *OH             1.5957-2
 *O2             1.0758-2
 O3              1.0617-8

  * THERMODYNAMIC PROPERTIES FITTED TO 20000.K


                     DETONATION PROPERTIES OF AN IDEAL REACTING GAS
 CASE =                

             REACTANT                       MOLES         ENERGY      TEMP
                                                         KJ/KG-MOL      K
 FUEL        C2H2,acetylene               1.0000000    228281.530    300.000
 OXIDANT     O2                           2.5000000        54.358    300.000
 OXIDANT     N2                           9.4048000        53.881    300.000

 O/F=   10.14691  %FUEL=  8.971093  R,EQ.RATIO= 1.300000  PHI,EQ.RATIO= 1.300000

 UNBURNED GAS

 P1, BAR           1.0000
 T1, K             300.00
 H1, KJ/KG         788.24
 M1, (1/n)         28.573
 GAMMA1            1.3722
 SON VEL1,M/SEC     346.1

 BURNED GAS

 P, BAR            20.389
 T, K             3244.34
 RHO, KG/CU M    2.0806 0
 H, KJ/KG         2100.51
 U, KJ/KG         1120.52
 G, KJ/KG        -28428.7
 S, KJ/(KG)(K)     9.4100

 M, (1/n)          27.526
 (dLV/dLP)t      -1.01352
 (dLV/dLT)p        1.2720
 Cp, KJ/(KG)(K)    3.1496
 GAMMAs            1.1650
 SON VEL,M/SEC     1068.5

 DETONATION PARAMETERS

 P/P1              20.389
 T/T1              10.814
 M/M1              0.9633
 RHO/RHO1          1.8163
 DET MACH NUMBER   5.6072
 DET VEL,M/SEC     1940.7

 MOLE FRACTIONS

 *C              8.294-11
 *CH             1.490-11
 CH2             1.332-11
 CH3             1.102-11
 CH2OH           2.840-12
 CH3O            7.805-13
 CH4             1.422-12
 CH3OH           8.792-14
 *CN             9.0204-9
 CNN             2.221-14
 *CO             1.2580-1
 *CO2            6.3875-2
 COOH            9.9896-7
 *C2             2.693-16
 C2H             3.972-15
 C2H2,acetylene  3.022-14
 C2H2,vinylidene 1.601-16
 CH2CO,ketene    3.917-13
 O(CH)2O         4.989-15
 HO(CO)2OH       1.677-15
 CH3CO,acetyl    1.127-16
 CNC             1.677-16
 OCCN            1.751-12
 C2N2            2.490-14
 C2O             1.152-11
 C3O2            1.420-14
 *H              9.0247-3
 HCN             1.3129-7
 HCO             1.3983-6
 HCCO            5.011-13
 HNC             2.7481-8
 HNCO            1.4795-7
 HNO             3.1041-6
 HNO2            3.2515-7
 HNO3            2.566-11
 HO2             8.9831-6
 *H2             1.6550-2
 HCHO,formaldehy 1.7661-8
 HCOOH           6.4382-8
 H2O             6.6103-2
 H2O2            6.2096-7
 *N              1.0921-5
 NCO             6.8823-8
 *NH             2.1220-6
 NH2             5.1471-7
 NH3             2.1053-7
 NH2OH           1.528-10
 *NO             1.0789-2
 NO2             4.4850-6
 NO3             1.584-11
 *N2             6.8071-1
 NCN             1.332-12
 N2H2            1.116-10
 NH2NO2          1.575-15
 N2H4            1.868-15
 N2O             2.6118-6
 N2O3            1.143-12
 N3              1.424-10
 N3H             2.652-11
 *O              4.6088-3
 *OH             1.5329-2
 *O2             7.1745-3
 O3              6.2414-9

  * THERMODYNAMIC PROPERTIES FITTED TO 20000.K


                     DETONATION PROPERTIES OF AN IDEAL REACTING GAS
 CASE =                

             REACTANT                       MOLES         ENERGY      TEMP
                                                         KJ/KG-MOL      K
 FUEL        C2H2,acetylene               1.0000000    228281.530    300.000
 OXIDANT     O2                           2.5000000        54.358    300.000
 OXIDANT     N2                           9.4048000        53.881    300.000

 O/F=    9.42213  %FUEL=  9.594964  R,EQ.RATIO= 1.400000  PHI,EQ.RATIO= 1.400000

 UNBURNED GAS

 P1, BAR           1.0000
 T1, K             300.00
 H1, KJ/KG         842.93
 M1, (1/n)         28.554
 GAMMA1            1.3705
 SON VEL1,M/SEC     346.0

 BURNED GAS

 P, BAR            20.718
 T, K             3266.89
 RHO, KG/CU M    2.0756 0
 H, KJ/KG         2179.12
 U, KJ/KG         1180.98
 G, KJ/KG        -28818.0
 S, KJ/(KG)(K)     9.4883

 M, (1/n)          27.213
 (dLV/dLP)t      -1.01262
 (dLV/dLT)p        1.2505
 Cp, KJ/(KG)(K)    3.0196
 GAMMAs            1.1704
 SON VEL,M/SEC     1080.9

 DETONATION PARAMETERS

 P/P1              20.718
 T/T1              10.890
 M/M1              0.9530
 RHO/RHO1          1.8132
 DET MACH NUMBER   5.6639
 DET VEL,M/SEC     1959.8

 MOLE FRACTIONS

 *C              1.468-10
 *CH             2.956-11
 CH2             2.893-11
 CH3             2.601-11
 CH2OH           5.188-12
 CH3O            1.445-12
 CH4             3.685-12
 CH3OH           1.774-13
 *CN             1.4840-8
 CNN             3.853-14
 *CO             1.4505-1
 *CO2            5.5510-2
 COOH            1.0510-6
 *C2             7.328-16
 C2H             1.171-14
 C2H2,acetylene  9.449-14
 C2H2,vinylidene 5.229-16
 CH2CO,ketene    9.207-13
 O(CH)2O         9.112-15
 HO(CO)2OH       1.758-15
 CH3CO,acetyl    3.101-16
 CNC             4.402-16
 OCCN            3.287-12
 C2N2            5.958-14
 C2O             2.211-11
 C3O2            2.992-14
 *H              1.0897-2
 HCN             2.3128-7
 HCO             1.9393-6
 HCCO            1.079-12
 HNC             4.9171-8
 HNCO            1.9738-7
 HNO             2.9381-6
 HNO2            2.3720-7
 HNO3            1.494-11
 HO2             6.6917-6
 *H2             2.1791-2
 HCHO,formaldehy 2.7273-8
 HCOOH           7.5330-8
 H2O             6.5925-2
 H2O2            5.1505-7
 *N              1.2157-5
 NCO             8.4737-8
 *NH             2.6462-6
 NH2             7.1060-7
 NH3             3.1635-7
 NH2OH           1.862-10
 *NO             8.7756-3
 NO2             2.9086-6
 NO3             8.400-12
 *N2             6.6927-1
 NCN             2.233-12
 N2H2            1.557-10
 NH2NO2          1.353-15
 N2H4            3.375-15
 N2O             2.1267-6
 N2O3            6.095-13
 N3              1.570-10
 N3H             3.261-11
 *O              3.9137-3
 *OH             1.4219-2
 *O2             4.6090-3
 O3              3.3910-9

  * THERMODYNAMIC PROPERTIES FITTED TO 20000.K


                     DETONATION PROPERTIES OF AN IDEAL REACTING GAS
 CASE =                

             REACTANT                       MOLES         ENERGY      TEMP
                                                         KJ/KG-MOL      K
 FUEL        C2H2,acetylene               1.0000000    228281.530    300.000
 OXIDANT     O2                           2.5000000        54.358    300.000
 OXIDANT     N2                           9.4048000        53.881    300.000

 O/F=    8.79399  %FUEL= 10.210342  R,EQ.RATIO= 1.500000  PHI,EQ.RATIO= 1.500000

 UNBURNED GAS

 P1, BAR           1.0000
 T1, K             300.00
 H1, KJ/KG         896.87
 M1, (1/n)         28.536
 GAMMA1            1.3689
 SON VEL1,M/SEC     345.9

 BURNED GAS

 P, BAR            20.987
 T, K             3280.35
 RHO, KG/CU M    2.0697 0
 H, KJ/KG         2253.26
 U, KJ/KG         1239.27
 G, KJ/KG        -29116.4
 S, KJ/(KG)(K)     9.5629

 M, (1/n)          26.898
 (dLV/dLP)t      -1.01148
 (dLV/dLT)p        1.2251
 Cp, KJ/(KG)(K)    2.8675
 GAMMAs            1.1769
 SON VEL,M/SEC     1092.4

 DETONATION PARAMETERS

 P/P1              20.987
 T/T1              10.935
 M/M1              0.9426
 RHO/RHO1          1.8092
 DET MACH NUMBER   5.7135
 DET VEL,M/SEC     1976.4

 MOLE FRACTIONS

 *C              2.377-10
 *CH             5.370-11
 CH2             5.814-11
 CH3             5.758-11
 CH2OH           8.849-12
 CH3O            2.483-12
 CH4             9.043-12
 CH3OH           3.365-13
 *CN             2.2979-8
 CNN             6.145-14
 *CO             1.6350-1
 *CO2            4.7456-2
 COOH            1.0547-6
 *C2             1.775-15
 C2H             3.118-14
 C2H2,acetylene  2.733-13
 C2H2,vinylidene 1.552-15
 CH2CO,ketene    2.016-12
 O(CH)2O         1.541-14
 HO(CO)2OH       1.720-15
 CH3CO,acetyl    7.815-16
 CNC             1.042-15
 OCCN            5.722-12
 C2N2            1.333-13
 C2O             3.905-11
 C3O2            5.809-14
 *H              1.2728-2
 HCN             3.9105-7
 HCO             2.5565-6
 HCCO            2.140-12
 HNC             8.3906-8
 HNCO            2.5382-7
 HNO             2.6591-6
 HNO2            1.6497-7
 HNO3            8.155-12
 HO2             4.7204-6
 *H2             2.8091-2
 HCHO,formaldehy 4.0170-8
 HCOOH           8.4415-8
 H2O             6.4646-2
 H2O2            4.0597-7
 *N              1.2882-5
 NCO             9.9103-8
 *NH             3.1445-6
 NH2             9.4033-7
 NH3             4.6152-7
 NH2OH           2.152-10
 *NO             6.9249-3
 NO2             1.7995-6
 NO3             4.136-12
 *N2             6.5787-1
 NCN             3.490-12
 N2H2            2.071-10
 NH2NO2          1.085-15
 N2H4            5.747-15
 N2O             1.6762-6
 N2O3            3.005-13
 N3              1.649-10
 N3H             3.829-11
 *O              3.1737-3
 *OH             1.2738-2
 *O2             2.8409-3
 O3              1.6969-9

  * THERMODYNAMIC PROPERTIES FITTED TO 20000.K


                     DETONATION PROPERTIES OF AN IDEAL REACTING GAS
 CASE =                

             REACTANT                       MOLES         ENERGY      TEMP
                                                         KJ/KG-MOL      K
 FUEL        C2H2,acetylene               1.0000000    228281.530    300.000
 OXIDANT     O2                           2.5000000        54.358    300.000
 OXIDANT     N2                           9.4048000        53.881    300.000

 O/F=    8.24437  %FUEL= 10.817398  R,EQ.RATIO= 1.600000  PHI,EQ.RATIO= 1.600000

 UNBURNED GAS

 P1, BAR           1.0000
 T1, K             300.00
 H1, KJ/KG         950.08
 M1, (1/n)         28.517
 GAMMA1            1.3673
 SON VEL1,M/SEC     345.8

 BURNED GAS

 P, BAR            21.202
 T, K             3285.49
 RHO, KG/CU M    2.0631 0
 H, KJ/KG         2323.17
 U, KJ/KG         1295.53
 G, KJ/KG        -29329.5
 S, KJ/(KG)(K)     9.6341

 M, (1/n)          26.583
 (dLV/dLP)t      -1.01028
 (dLV/dLT)p        1.1989
 Cp, KJ/(KG)(K)    2.7108
 GAMMAs            1.1842
 SON VEL,M/SEC     1103.1

 DETONATION PARAMETERS

 P/P1              21.202
 T/T1              10.952
 M/M1              0.9322
 RHO/RHO1          1.8046
 DET MACH NUMBER   5.7565
 DET VEL,M/SEC     1990.8

 MOLE FRACTIONS

 *C              3.577-10
 *CH             9.068-11
 CH2             1.096-10
 CH3             1.210-10
 CH2OH           1.421-11
 CH3O            4.000-12
 CH4             2.123-11
 CH3OH           6.047-13
 *CN             3.3898-8
 CNN             9.141-14
 *CO             1.8096-1
 *CO2            3.9914-2
 COOH            1.0129-6
 *C2             3.921-15
 C2H             7.668-14
 C2H2,acetylene  7.453-13
 C2H2,vinylidene 4.273-15
 CH2CO,ketene    4.176-12
 O(CH)2O         2.442-14
 HO(CO)2OH       1.578-15
 C2H3,vinyl      2.008-16
 CH3CN           1.476-16
 CH3CO,acetyl    1.834-15
 CNC             2.276-15
 OCCN            9.383-12
 C2N2            2.840-13
 C2O             6.458-11
 C3O2            1.059-13
 *H              1.4429-2
 HCN             6.4082-7
 HCO             3.2261-6
 HCCO            3.971-12
 HNC             1.3798-7
 HNCO            3.1641-7
 HNO             2.3029-6
 HNO2            1.0911-7
 HNO3            4.152-12
 HO2             3.1479-6
 *H2             3.5519-2
 HCHO,formaldehy 5.6805-8
 HCOOH           9.0823-8
 H2O             6.2186-2
 H2O2            3.0339-7
 *N              1.3063-5
 NCO             1.1092-7
 *NH             3.5780-6
 NH2             1.1975-6
 NH3             6.5526-7
 NH2OH           2.360-10
 *NO             5.2991-3
 NO2             1.0597-6
 NO3             1.885-12
 *N2             6.4650-1
 NCN             5.152-12
 N2H2            2.634-10
 NH2NO2          8.111-16
 N2H4            9.270-15
 N2O             1.2785-6
 N2O3            1.367-13
 N3              1.656-10
 N3H             4.312-11
 *O              2.4607-3
 *OH             1.1021-2
 *O2             1.6753-3
 O3              7.804-10

  * THERMODYNAMIC PROPERTIES FITTED TO 20000.K


                     DETONATION PROPERTIES OF AN IDEAL REACTING GAS
 CASE =                

             REACTANT                       MOLES         ENERGY      TEMP
                                                         KJ/KG-MOL      K
 FUEL        C2H2,acetylene               1.0000000    228281.530    300.000
 OXIDANT     O2                           2.5000000        54.358    300.000
 OXIDANT     N2                           9.4048000        53.881    300.000

 O/F=    7.75940  %FUEL= 11.416302  R,EQ.RATIO= 1.700000  PHI,EQ.RATIO= 1.700000

 UNBURNED GAS

 P1, BAR           1.0000
 T1, K             300.00
 H1, KJ/KG        1002.58
 M1, (1/n)         28.499
 GAMMA1            1.3657
 SON VEL1,M/SEC     345.7

 BURNED GAS

 P, BAR            21.367
 T, K             3283.16
 RHO, KG/CU M    2.0561 0
 H, KJ/KG         2389.18
 U, KJ/KG         1349.98
 G, KJ/KG        -29464.0
 S, KJ/(KG)(K)     9.7020

 M, (1/n)          26.268
 (dLV/dLP)t      -1.00912
 (dLV/dLT)p        1.1741
 Cp, KJ/(KG)(K)    2.5632
 GAMMAs            1.1921
 SON VEL,M/SEC     1113.0

 DETONATION PARAMETERS

 P/P1              21.367
 T/T1              10.944
 M/M1              0.9217
 RHO/RHO1          1.7996
 DET MACH NUMBER   5.7934
 DET VEL,M/SEC     2003.0

 MOLE FRACTIONS

 *C              5.066-10
 *CH             1.441-10
 CH2             1.959-10
 CH3             2.434-10
 CH2OH           2.163-11
 CH3O            6.079-12
 CH4             4.800-11
 CH3OH           1.034-12
 *CN             4.8126-8
 CNN             1.284-13
 *CO             1.9732-1
 *CO2            3.3019-2
 COOH            9.3281-7
 *C2             8.053-15
 C2H             1.773-13
 C2H2,acetylene  1.944-12
 C2H2,vinylidene 1.110-14
 CH2CO,ketene    8.267-12
 O(CH)2O         3.656-14
 HO(CO)2OH       1.358-15
 C2H3,vinyl      5.850-16
 CH3CN           4.304-16
 CH3CO,acetyl    4.056-15
 C2H4            1.655-16
 CNC             4.668-15
 OCCN            1.468-11
 C2N2            5.851-13
 C2O             1.013-10
 C3O2            1.837-13
 *H              1.5916-2
 HCN             1.0255-6
 HCO             3.9187-6
 HCCO            6.989-12
 HNC             2.2045-7
 HNCO            3.8395-7
 HNO             1.9100-6
 HNO2            6.8500-8
 HNO3            1.966-12
 HO2             1.9819-6
 *H2             4.4082-2
 HCHO,formaldehy 7.7468-8
 HCOOH           9.3915-8
 H2O             5.8522-2
 H2O2            2.1445-7
 *N              1.2737-5
 NCO             1.1955-7
 *NH             3.9145-6
 NH2             1.4717-6
 NH3             9.0622-7
 NH2OH           2.458-10
 *NO             3.9322-3
 NO2             5.9318-7
 NO3             7.940-13
 *N2             6.3520-1
 NCN             7.263-12
 N2H2            3.218-10
 NH2NO2          5.656-16
 N2H4            1.421-14
 N2O             9.4388-7
 N2O3            5.724-14
 N3              1.601-10
 N3H             4.678-11
 *O              1.8271-3
 *OH             9.2050-3
 *O2             9.4336-4
 O3              3.295-10

  * THERMODYNAMIC PROPERTIES FITTED TO 20000.K


                     DETONATION PROPERTIES OF AN IDEAL REACTING GAS
 CASE =                

             REACTANT                       MOLES         ENERGY      TEMP
                                                         KJ/KG-MOL      K
 FUEL        C2H2,acetylene               1.0000000    228281.530    300.000
 OXIDANT     O2                           2.5000000        54.358    300.000
 OXIDANT     N2                           9.4048000        53.881    300.000

 O/F=    7.32833  %FUEL= 12.007215  R,EQ.RATIO= 1.800000  PHI,EQ.RATIO= 1.800000

 UNBURNED GAS

 P1, BAR           1.0000
 T1, K             300.00
 H1, KJ/KG        1054.38
 M1, (1/n)         28.481
 GAMMA1            1.3642
 SON VEL1,M/SEC     345.7

 BURNED GAS

 P, BAR            21.492
 T, K             3274.41
 RHO, KG/CU M    2.0490 0
 H, KJ/KG         2451.75
 U, KJ/KG         1402.86
 G, KJ/KG        -29528.6
 S, KJ/(KG)(K)     9.7668

 M, (1/n)          25.956
 (dLV/dLP)t      -1.00809
 (dLV/dLT)p        1.1523
 Cp, KJ/(KG)(K)    2.4333
 GAMMAs            1.2001
 SON VEL,M/SEC     1121.9

 DETONATION PARAMETERS

 P/P1              21.492
 T/T1              10.915
 M/M1              0.9114
 RHO/RHO1          1.7945
 DET MACH NUMBER   5.8247
 DET VEL,M/SEC     2013.3

 MOLE FRACTIONS

 *C              6.841-10
 *CH             2.180-10
 CH2             3.351-10
 CH3             4.720-10
 CH2OH           3.133-11
 CH3O            8.761-12
 CH4             1.051-10
 CH3OH           1.687-12
 *CN             6.6415-8
 CNN             1.726-13
 *CO             2.1255-1
 *CO2            2.6834-2
 COOH            8.2474-7
 *C2             1.568-14
 C2H             3.920-13
 C2H2,acetylene  4.918-12
 C2H2,vinylidene 2.761-14
 CH2CO,ketene    1.579-11
 O(CH)2O         5.209-14
 HO(CO)2OH       1.097-15
 C2H3,vinyl      1.629-15
 CH3CN           1.217-15
 CH3CO,acetyl    8.539-15
 C2H4            5.224-16
 CH3CHO,ethanal  1.545-16
 CCN             1.386-16
 CNC             9.159-15
 OCCN            2.217-11
 C2N2            1.182-12
 C2O             1.527-10
 C3O2            3.075-13
 *H              1.7128-2
 HCN             1.6136-6
 HCO             4.6036-6
 HCCN            1.298-16
 HCCO            1.180-11
 HNC             3.4482-7
 HNCO            4.5498-7
 HNO             1.5181-6
 HNO2            4.0728-8
 HNO3            8.627-13
 HO2             1.1763-6
 *H2             5.3716-2
 HCHO,formaldehy 1.0223-7
 HCOOH           9.3314-8
 H2O             5.3698-2
 H2O2            1.4297-7
 *N              1.2006-5
 NCO             1.2481-7
 *NH             4.1351-6
 NH2             1.7502-6
 NH3             1.2212-6
 NH2OH           2.429-10
 *NO             2.8298-3
 NO2             3.1520-7
 NO3             3.085-13
 *N2             6.2398-1
 NCN             9.890-12
 N2H2            3.787-10
 NH2NO2          3.675-16
 N2H4            2.076-14
 N2O             6.7477-7
 N2O3            2.206-14
 N3              1.496-10
 N3H             4.907-11
 *O              1.3014-3
 *OH             7.4192-3
 *O2             5.0622-4
 O3              1.276-10

  * THERMODYNAMIC PROPERTIES FITTED TO 20000.K


                     DETONATION PROPERTIES OF AN IDEAL REACTING GAS
 CASE =                

             REACTANT                       MOLES         ENERGY      TEMP
                                                         KJ/KG-MOL      K
 FUEL        C2H2,acetylene               1.0000000    228281.530    300.000
 OXIDANT     O2                           2.5000000        54.358    300.000
 OXIDANT     N2                           9.4048000        53.881    300.000

 O/F=    6.94262  %FUEL= 12.590296  R,EQ.RATIO= 1.900000  PHI,EQ.RATIO= 1.900000

 UNBURNED GAS

 P1, BAR           1.0000
 T1, K             300.00
 H1, KJ/KG        1105.49
 M1, (1/n)         28.463
 GAMMA1            1.3627
 SON VEL1,M/SEC     345.6

 BURNED GAS

 P, BAR            21.583
 T, K             3260.40
 RHO, KG/CU M    2.0420 0
 H, KJ/KG         2511.35
 U, KJ/KG         1454.43
 G, KJ/KG        -29533.4
 S, KJ/(KG)(K)     9.8285

 M, (1/n)          25.649
 (dLV/dLP)t      -1.00722
 (dLV/dLT)p        1.1340
 Cp, KJ/(KG)(K)    2.3248
 GAMMAs            1.2079
 SON VEL,M/SEC     1129.9

 DETONATION PARAMETERS

 P/P1              21.583
 T/T1              10.868
 M/M1              0.9011
 RHO/RHO1          1.7895
 DET MACH NUMBER   5.8511
 DET VEL,M/SEC     2022.0

 MOLE FRACTIONS

 *C              8.934-10
 *CH             3.183-10
 CH2             5.547-10
 CH3             8.902-10
 CH2OH           4.339-11
 CH3O            1.204-11
 CH4             2.244-10
 CH3OH           2.636-12
 *CN             9.0075-8
 CNN             2.250-13
 *CO             2.2668-1
 *CO2            2.1362-2
 COOH            6.9983-7
 *C2             2.958-14
 C2H             8.441-13
 C2H2,acetylene  1.224-11
 C2H2,vinylidene 6.691-14
 CH2CO,ketene    2.940-11
 O(CH)2O         7.104-14
 HO(CO)2OH       8.285-16
 C2H3,vinyl      4.403-15
 CH3CN           3.384-15
 CH3CO,acetyl    1.730-14
 C2H4            1.609-15
 CH3CHO,ethanal  3.521-16
 CCN             2.604-16
 CNC             1.753-14
 OCCN            3.272-11
 C2N2            2.380-12
 C2O             2.240-10
 C3O2            5.027-13
 *H              1.8031-2
 HCN             2.5160-6
 HCO             5.2538-6
 HCCN            2.753-16
 HCCO            1.933-11
 HNC             5.3254-7
 HNCO            5.2804-7
 HNO             1.1561-6
 HNO2            2.2837-8
 HNO3            3.485-13
 HO2             6.5577-7
 *H2             6.4287-2
 HCHO,formaldehy 1.3095-7
 HCOOH           8.8933-8
 H2O             4.7827-2
 H2O2            8.9457-8
 *N              1.1002-5
 NCO             1.2691-7
 *NH             4.2369-6
 NH2             2.0198-6
 NH3             1.6041-6
 NH2OH           2.277-10
 *NO             1.9731-3
 NO2             1.5847-7
 NO3             1.101-13
 *N2             6.1290-1
 NCN             1.316-11
 N2H2            4.310-10
 NH2NO2          2.219-16
 N2H4            2.897-14
 N2O             4.6683-7
 N2O3            7.789-15
 N3              1.359-10
 N3H             5.000-11
 *O              8.8999-4
 *OH             5.7622-3
 *O2             2.5783-4
 O3              4.520-11

  * THERMODYNAMIC PROPERTIES FITTED TO 20000.K


                     DETONATION PROPERTIES OF AN IDEAL REACTING GAS
 CASE =                

             REACTANT                       MOLES         ENERGY      TEMP
                                                         KJ/KG-MOL      K
 FUEL        C2H2,acetylene               1.0000000    228281.530    300.000
 OXIDANT     O2                           2.5000000        54.358    300.000
 OXIDANT     N2                           9.4048000        53.881    300.000

 O/F=    6.59549  %FUEL= 13.165701  R,EQ.RATIO= 2.000000  PHI,EQ.RATIO= 2.000000

 UNBURNED GAS

 P1, BAR           1.0000
 T1, K             300.00
 H1, KJ/KG        1155.93
 M1, (1/n)         28.446
 GAMMA1            1.3612
 SON VEL1,M/SEC     345.5

 BURNED GAS

 P, BAR            21.649
 T, K             3242.31
 RHO, KG/CU M    2.0355 0
 H, KJ/KG         2568.50
 U, KJ/KG         1504.92
 G, KJ/KG        -29489.0
 S, KJ/(KG)(K)     9.8873

 M, (1/n)          25.347
 (dLV/dLP)t      -1.00650
 (dLV/dLT)p        1.1190
 Cp, KJ/(KG)(K)    2.2376
 GAMMAs            1.2152
 SON VEL,M/SEC     1136.9

 DETONATION PARAMETERS

 P/P1              21.649
 T/T1              10.808
 M/M1              0.8911
 RHO/RHO1          1.7849
 DET MACH NUMBER   5.8733
 DET VEL,M/SEC     2029.2

 MOLE FRACTIONS

 *C              1.1467-9
 *CH             4.551-10
 CH2             9.006-10
 CH3             1.6506-9
 CH2OH           5.772-11
 CH3O            1.584-11
 CH4             4.712-10
 CH3OH           3.952-12
 *CN             1.2165-7
 CNN             2.889-13
 *CO             2.3976-1
 *CO2            1.6561-2
 COOH            5.6812-7
 *C2             5.544-14
 C2H             1.812-12
 C2H2,acetylene  3.060-11
 C2H2,vinylidene 1.614-13
 CH2CO,ketene    5.397-11
 O(CH)2O         9.327-14
 HO(CO)2OH       5.797-16
 C2H3,vinyl      1.181-14
 CH3CN           9.424-15
 CH3CO,acetyl    3.417-14
 C2H4            4.924-15
 CH3CHO,ethanal  7.811-16
 CCN             4.864-16
 CNC             3.356-14
 OCCN            4.789-11
 C2N2            4.870-12
 C2O             3.247-10
 C3O2            8.145-13
 *H              1.8622-2
 HCN             3.9272-6
 HCO             5.8490-6
 HCCN            5.802-16
 HCCO            3.119-11
 HNC             8.2089-7
 HNCO            6.0181-7
 HNO             8.4130-7
 HNO2            1.1964-8
 HNO3            1.278-13
 HO2             3.4047-7
 *H2             7.5622-2
 HCHO,formaldehy 1.6329-7
 HCOOH           8.0936-8
 H2O             4.1070-2
 H2O2            5.2018-8
 *N              9.8564-6
 NCO             1.2635-7
 *NH             4.2304-6
 NH2             2.2691-6
 NH3             2.0557-6
 NH2OH           2.016-10
 *NO             1.3283-3
 NO2             7.4735-8
 NO3             3.563-14
 *N2             6.0201-1
 NCN             1.737-11
 N2H2            4.761-10
 NH2NO2          1.235-16
 N2H4            3.878-14
 N2O             3.1155-7
 N2O3            2.491-15
 N3              1.208-10
 N3H             4.971-11
 *O              5.8330-4
 *OH             4.2955-3
 *O2             1.2348-4
 O3              1.446-11

  * THERMODYNAMIC PROPERTIES FITTED TO 20000.K



