
 *******************************************************************************

         NASA-GLENN CHEMICAL EQUILIBRIUM PROGRAM CEA2, MAY 21, 2004
                   BY  BONNIE MCBRIDE AND SANFORD GORDON
      REFS: NASA RP-1311, PART I, 1994 AND NASA RP-1311, PART II, 1996

 *******************************************************************************



 problem    phi,eq.ratio=0.5,0.6,0.7,0.8,0.9,1,1.1,1.2,1.3,1.4,1.5,1.6,1.7,1.8,1.
 9,2,
       det   t,k=300,  p,bar=1,
 react
   fuel=C2H4 moles=1 t,k=300
   oxid=O2 moles=3 t,k=300
 output
      trace=1e-16 siunits short
 end


                     DETONATION PROPERTIES OF AN IDEAL REACTING GAS
 CASE =                

             REACTANT                       MOLES         ENERGY      TEMP
                                                         KJ/KG-MOL      K
 FUEL        C2H4                         1.0000000     52579.505    300.000
 OXIDANT     O2                           3.0000000        54.358    300.000

 O/F=    6.84389  %FUEL= 12.748773  R,EQ.RATIO= 0.500000  PHI,EQ.RATIO= 0.500000

 UNBURNED GAS

 P1, BAR           1.0000
 T1, K             300.00
 H1, KJ/KG         240.43
 M1, (1/n)         31.435
 GAMMA1            1.3611
 SON VEL1,M/SEC     328.6

 BURNED GAS

 P, BAR            25.513
 T, K             3592.79
 RHO, KG/CU M    2.3291 0
 H, KJ/KG         1739.28
 U, KJ/KG          643.86
 G, KJ/KG        -34523.3
 S, KJ/(KG)(K)    10.0931

 M, (1/n)          27.270
 (dLV/dLP)t      -1.05220
 (dLV/dLT)p        1.9198
 Cp, KJ/(KG)(K)    6.6332
 GAMMAs            1.1328
 SON VEL,M/SEC     1113.9

 DETONATION PARAMETERS

 P/P1              25.513
 T/T1              11.976
 M/M1              0.8675
 RHO/RHO1          1.8481
 DET MACH NUMBER   6.2644
 DET VEL,M/SEC     2058.7

 MOLE FRACTIONS

 *C              1.662-10
 *CH             1.922-11
 CH2             7.932-12
 CH3             2.740-12
 CH2OH           3.087-12
 CH3O            1.023-12
 CH4             1.729-13
 CH3OH           5.028-14
 *CO             9.7831-2
 *CO2            1.5002-1
 COOH            4.4539-6
 *C2             1.499-16
 C2H             8.795-16
 C2H2,acetylene  2.001-15
 CH2CO,ketene    7.502-14
 O(CH)2O         4.416-15
 HO(CO)2OH       1.557-14
 C2O             7.582-12
 C3O2            3.678-15
 *H              1.6540-2
 HCO             1.8883-6
 HCCO            2.156-13
 HO2             4.7601-4
 *H2             1.3248-2
 HCHO,formaldehy 1.4004-8
 HCOOH           1.6586-7
 H2O             1.7090-1
 H2O2            1.9295-5
 *O              7.4186-2
 *OH             1.1036-1
 *O2             3.6641-1
 O3              4.9403-6

  * THERMODYNAMIC PROPERTIES FITTED TO 20000.K


                     DETONATION PROPERTIES OF AN IDEAL REACTING GAS
 CASE =                

             REACTANT                       MOLES         ENERGY      TEMP
                                                         KJ/KG-MOL      K
 FUEL        C2H4                         1.0000000     52579.505    300.000
 OXIDANT     O2                           3.0000000        54.358    300.000

 O/F=    5.70324  %FUEL= 14.918151  R,EQ.RATIO= 0.600000  PHI,EQ.RATIO= 0.600000

 UNBURNED GAS

 P1, BAR           1.0000
 T1, K             300.00
 H1, KJ/KG         281.05
 M1, (1/n)         31.341
 GAMMA1            1.3560
 SON VEL1,M/SEC     328.5

 BURNED GAS

 P, BAR            27.313
 T, K             3695.83
 RHO, KG/CU M    2.3247 0
 H, KJ/KG         1894.08
 U, KJ/KG          719.17
 G, KJ/KG        -36803.8
 S, KJ/(KG)(K)    10.4707

 M, (1/n)          26.154
 (dLV/dLP)t      -1.06268
 (dLV/dLT)p        2.0676
 Cp, KJ/(KG)(K)    7.5403
 GAMMAs            1.1332
 SON VEL,M/SEC     1153.9

 DETONATION PARAMETERS

 P/P1              27.313
 T/T1              12.319
 M/M1              0.8345
 RHO/RHO1          1.8501
 DET MACH NUMBER   6.4984
 DET VEL,M/SEC     2134.8

 MOLE FRACTIONS

 *C              5.389-10
 *CH             7.016-11
 CH2             2.986-11
 CH3             1.038-11
 CH2OH           9.177-12
 CH3O            3.199-12
 CH4             6.895-13
 CH3OH           1.599-13
 *CO             1.3276-1
 *CO2            1.4540-1
 COOH            6.4307-6
 *C2             9.529-16
 C2H             5.556-15
 C2H2,acetylene  1.167-14
 C2H2,vinylidene 1.330-16
 CH2CO,ketene    3.085-13
 O(CH)2O         1.447-14
 HO(CO)2OH       2.698-14
 CH3CO,acetyl    1.391-16
 C2O             2.698-11
 C3O2            1.506-14
 *H              2.4186-2
 HCO             3.7314-6
 HCCO            8.663-13
 HO2             4.7802-4
 *H2             1.9702-2
 HCHO,formaldehy 3.0426-8
 HCOOH           2.6218-7
 H2O             1.8452-1
 H2O2            2.1280-5
 *O              8.0927-2
 *OH             1.2318-1
 *O2             2.8881-1
 O3              4.2808-6

  * THERMODYNAMIC PROPERTIES FITTED TO 20000.K


                     DETONATION PROPERTIES OF AN IDEAL REACTING GAS
 CASE =                

             REACTANT                       MOLES         ENERGY      TEMP
                                                         KJ/KG-MOL      K
 FUEL        C2H4                         1.0000000     52579.505    300.000
 OXIDANT     O2                           3.0000000        54.358    300.000

 O/F=    4.88849  %FUEL= 16.982270  R,EQ.RATIO= 0.700000  PHI,EQ.RATIO= 0.700000

 UNBURNED GAS

 P1, BAR           1.0000
 T1, K             300.00
 H1, KJ/KG         319.71
 M1, (1/n)         31.252
 GAMMA1            1.3514
 SON VEL1,M/SEC     328.4

 BURNED GAS

 P, BAR            28.955
 T, K             3775.91
 RHO, KG/CU M    2.3194 0
 H, KJ/KG         2037.95
 U, KJ/KG          789.54
 G, KJ/KG        -38810.4
 S, KJ/(KG)(K)    10.8181

 M, (1/n)          25.148
 (dLV/dLP)t      -1.07082
 (dLV/dLT)p        2.1744
 Cp, KJ/(KG)(K)    8.2612
 GAMMAs            1.1343
 SON VEL,M/SEC     1190.0

 DETONATION PARAMETERS

 P/P1              28.955
 T/T1              12.586
 M/M1              0.8047
 RHO/RHO1          1.8512
 DET MACH NUMBER   6.7074
 DET VEL,M/SEC     2202.8

 MOLE FRACTIONS

 *C              1.3276-9
 *CH             1.923-10
 CH2             8.534-11
 CH3             3.037-11
 CH2OH           2.178-11
 CH3O            7.884-12
 CH4             2.140-12
 CH3OH           4.067-13
 CH3OOH          1.594-16
 *CO             1.6650-1
 *CO2            1.3795-1
 COOH            8.3510-6
 *C2             4.017-15
 C2H             2.377-14
 C2H2,acetylene  4.799-14
 C2H2,vinylidene 6.136-16
 CH2CO,ketene    9.498-13
 O(CH)2O         3.654-14
 HO(CO)2OH       4.002-14
 CH3CO,acetyl    5.363-16
 C2O             7.185-11
 C3O2            4.489-14
 *H              3.2397-2
 HCO             6.2996-6
 HCCO            2.573-12
 HO2             4.5625-4
 *H2             2.7239-2
 HCHO,formaldehy 5.6181-8
 HCOOH           3.7118-7
 H2O             1.9525-1
 H2O2            2.2191-5
 *O              8.3047-2
 *OH             1.3104-1
 *O2             2.2607-1
 O3              3.4937-6

  * THERMODYNAMIC PROPERTIES FITTED TO 20000.K


                     DETONATION PROPERTIES OF AN IDEAL REACTING GAS
 CASE =                

             REACTANT                       MOLES         ENERGY      TEMP
                                                         KJ/KG-MOL      K
 FUEL        C2H4                         1.0000000     52579.505    300.000
 OXIDANT     O2                           3.0000000        54.358    300.000

 O/F=    4.27743  %FUEL= 18.948608  R,EQ.RATIO= 0.800000  PHI,EQ.RATIO= 0.800000

 UNBURNED GAS

 P1, BAR           1.0000
 T1, K             300.00
 H1, KJ/KG         356.53
 M1, (1/n)         31.168
 GAMMA1            1.3471
 SON VEL1,M/SEC     328.3

 BURNED GAS

 P, BAR            30.473
 T, K             3839.56
 RHO, KG/CU M    2.3137 0
 H, KJ/KG         2172.79
 U, KJ/KG          855.73
 G, KJ/KG        -40598.1
 S, KJ/(KG)(K)    11.1395

 M, (1/n)          24.239
 (dLV/dLP)t      -1.07690
 (dLV/dLT)p        2.2477
 Cp, KJ/(KG)(K)    8.8251
 GAMMAs            1.1357
 SON VEL,M/SEC     1223.0

 DETONATION PARAMETERS

 P/P1              30.473
 T/T1              12.799
 M/M1              0.7777
 RHO/RHO1          1.8516
 DET MACH NUMBER   6.8970
 DET VEL,M/SEC     2264.6

 MOLE FRACTIONS

 *C              2.7342-9
 *CH             4.372-10
 CH2             2.038-10
 CH3             7.515-11
 CH2OH           4.452-11
 CH3O            1.660-11
 CH4             5.638-12
 CH3OH           8.924-13
 CH3OOH          3.288-16
 *CO             1.9850-1
 *CO2            1.2893-1
 COOH            1.0095-5
 *C2             1.298-14
 C2H             7.900-14
 C2H2,acetylene  1.574-13
 C2H2,vinylidene 2.198-15
 CH2CO,ketene    2.423-12
 O(CH)2O         7.773-14
 HO(CO)2OH       5.339-14
 CH3CO,acetyl    1.654-15
 C2O             1.585-10
 C3O2            1.089-13
 *H              4.0956-2
 HCO             9.5909-6
 HCCO            6.275-12
 HO2             4.1910-4
 *H2             3.5887-2
 HCHO,formaldehy 9.3199-8
 HCOOH           4.8769-7
 H2O             2.0346-1
 H2O2            2.2189-5
 *O              8.1675-2
 *OH             1.3476-1
 *O2             1.7537-1
 O3              2.7191-6

  * THERMODYNAMIC PROPERTIES FITTED TO 20000.K


                     DETONATION PROPERTIES OF AN IDEAL REACTING GAS
 CASE =                

             REACTANT                       MOLES         ENERGY      TEMP
                                                         KJ/KG-MOL      K
 FUEL        C2H4                         1.0000000     52579.505    300.000
 OXIDANT     O2                           3.0000000        54.358    300.000

 O/F=    3.80216  %FUEL= 20.823953  R,EQ.RATIO= 0.900000  PHI,EQ.RATIO= 0.900000

 UNBURNED GAS

 P1, BAR           1.0000
 T1, K             300.00
 H1, KJ/KG         391.64
 M1, (1/n)         31.088
 GAMMA1            1.3432
 SON VEL1,M/SEC     328.3

 BURNED GAS

 P, BAR            31.883
 T, K             3890.40
 RHO, KG/CU M    2.3079 0
 H, KJ/KG         2299.67
 U, KJ/KG          918.20
 G, KJ/KG        -42198.3
 S, KJ/(KG)(K)    11.4379

 M, (1/n)          23.415
 (dLV/dLP)t      -1.08112
 (dLV/dLT)p        2.2930
 Cp, KJ/(KG)(K)    9.2521
 GAMMAs            1.1372
 SON VEL,M/SEC     1253.4

 DETONATION PARAMETERS

 P/P1              31.883
 T/T1              12.968
 M/M1              0.7532
 RHO/RHO1          1.8518
 DET MACH NUMBER   7.0702
 DET VEL,M/SEC     2321.0

 MOLE FRACTIONS

 *C              4.9611-9
 *CH             8.711-10
 CH2             4.287-10
 CH3             1.653-10
 CH2OH           8.189-11
 CH3O            3.123-11
 CH4             1.325-11
 CH3OH           1.763-12
 CH3OOH          6.005-16
 *CO             2.2847-1
 *CO2            1.1912-1
 COOH            1.1578-5
 *C2             3.479-14
 C2H             2.202-13
 C2H2,acetylene  4.418-13
 C2H2,vinylidene 6.602-15
 CH2CO,ketene    5.423-12
 O(CH)2O         1.465-13
 HO(CO)2OH       6.583-14
 C2H3,vinyl      2.313-16
 CH3CO,acetyl    4.360-15
 C2O             3.064-10
 C3O2            2.291-13
 *H              4.9672-2
 HCO             1.3570-5
 HCCO            1.333-11
 HO2             3.7278-4
 *H2             4.5700-2
 HCHO,formaldehy 1.4334-7
 HCOOH           6.0684-7
 H2O             2.0937-1
 H2O2            2.1437-5
 *O              7.7710-2
 *OH             1.3498-1
 *O2             1.3456-1
 O3              2.0289-6

  * THERMODYNAMIC PROPERTIES FITTED TO 20000.K


                     DETONATION PROPERTIES OF AN IDEAL REACTING GAS
 CASE =                

             REACTANT                       MOLES         ENERGY      TEMP
                                                         KJ/KG-MOL      K
 FUEL        C2H4                         1.0000000     52579.505    300.000
 OXIDANT     O2                           3.0000000        54.358    300.000

 O/F=    3.42195  %FUEL= 22.614478  R,EQ.RATIO= 1.000000  PHI,EQ.RATIO= 1.000000

 UNBURNED GAS

 P1, BAR           1.0000
 T1, K             300.00
 H1, KJ/KG         425.17
 M1, (1/n)         31.012
 GAMMA1            1.3395
 SON VEL1,M/SEC     328.2

 BURNED GAS

 P, BAR            33.196
 T, K             3930.51
 RHO, KG/CU M    2.3021 0
 H, KJ/KG         2419.21
 U, KJ/KG          977.25
 G, KJ/KG        -43629.0
 S, KJ/(KG)(K)    11.7156

 M, (1/n)          22.664
 (dLV/dLP)t      -1.08363
 (dLV/dLT)p        2.3136
 Cp, KJ/(KG)(K)    9.5531
 GAMMAs            1.1389
 SON VEL,M/SEC     1281.5

 DETONATION PARAMETERS

 P/P1              33.196
 T/T1              13.102
 M/M1              0.7308
 RHO/RHO1          1.8516
 DET MACH NUMBER   7.2291
 DET VEL,M/SEC     2372.8

 MOLE FRACTIONS

 *C              8.1811-9
 *CH             1.5715-9
 CH2             8.212-10
 CH3             3.336-10
 CH2OH           1.391-10
 CH3O            5.399-11
 CH4             2.865-11
 CH3OH           3.222-12
 CH3OOH          9.978-16
 *CO             2.5633-1
 *CO2            1.0903-1
 COOH            1.2745-5
 *C2             8.119-14
 C2H             5.389-13
 C2H2,acetylene  1.107-12
 C2H2,vinylidene 1.743-14
 CH2CO,ketene    1.103-11
 O(CH)2O         2.521-13
 HO(CO)2OH       7.631-14
 C2H3,vinyl      6.711-16
 CH3CO,acetyl    1.024-14
 C2O             5.372-10
 C3O2            4.338-13
 *H              5.8353-2
 HCO             1.8172-5
 HCCO            2.559-11
 HO2             3.2204-4
 *H2             5.6744-2
 HCHO,formaldehy 2.0839-7
 HCOOH           7.2407-7
 H2O             2.1317-1
 H2O2            2.0091-5
 *O              7.1878-2
 *OH             1.3222-1
 *O2             1.0190-1
 O3              1.4539-6

  * THERMODYNAMIC PROPERTIES FITTED TO 20000.K


                     DETONATION PROPERTIES OF AN IDEAL REACTING GAS
 CASE =                

             REACTANT                       MOLES         ENERGY      TEMP
                                                         KJ/KG-MOL      K
 FUEL        C2H4                         1.0000000     52579.505    300.000
 OXIDANT     O2                           3.0000000        54.358    300.000

 O/F=    3.11086  %FUEL= 24.325810  R,EQ.RATIO= 1.100000  PHI,EQ.RATIO= 1.100000

 UNBURNED GAS

 P1, BAR           1.0000
 T1, K             300.00
 H1, KJ/KG         457.22
 M1, (1/n)         30.940
 GAMMA1            1.3360
 SON VEL1,M/SEC     328.2

 BURNED GAS

 P, BAR            34.415
 T, K             3961.13
 RHO, KG/CU M    2.2964 0
 H, KJ/KG         2531.73
 U, KJ/KG         1033.05
 G, KJ/KG        -44900.9
 S, KJ/(KG)(K)    11.9745

 M, (1/n)          21.976
 (dLV/dLP)t      -1.08447
 (dLV/dLT)p        2.3114
 Cp, KJ/(KG)(K)    9.7321
 GAMMAs            1.1405
 SON VEL,M/SEC     1307.4

 DETONATION PARAMETERS

 P/P1              34.415
 T/T1              13.204
 M/M1              0.7103
 RHO/RHO1          1.8513
 DET MACH NUMBER   7.3749
 DET VEL,M/SEC     2420.4

 MOLE FRACTIONS

 *C              1.2501-8
 *CH             2.6210-9
 CH2             1.4616-9
 CH3             6.301-10
 CH2OH           2.219-10
 CH3O            8.729-11
 CH4             5.817-11
 CH3OH           5.541-12
 CH3OOH          1.536-15
 *CO             2.8207-1
 *CO2            9.9013-2
 COOH            1.3561-5
 *C2             1.700-13
 C2H             1.194-12
 C2H2,acetylene  2.546-12
 C2H2,vinylidene 4.168-14
 CH2CO,ketene    2.085-11
 O(CH)2O         4.042-13
 HO(CO)2OH       8.407-14
 C2H3,vinyl      1.758-15
 CH3CO,acetyl    2.201-14
 C2H4            1.753-16
 CH3CHO,ethanal  2.033-16
 CH3COOH         1.159-16
 C2O             8.726-10
 C3O2            7.580-13
 *H              6.6795-2
 HCO             2.3299-5
 HCCO            4.541-11
 HO2             2.7049-4
 *H2             6.9088-2
 HCHO,formaldehy 2.8996-7
 HCOOH           8.3515-7
 H2O             2.1499-1
 H2O2            1.8303-5
 *O              6.4786-2
 *OH             1.2694-1
 *O2             7.5986-2
 O3              1.0002-6

  * THERMODYNAMIC PROPERTIES FITTED TO 20000.K


                     DETONATION PROPERTIES OF AN IDEAL REACTING GAS
 CASE =                

             REACTANT                       MOLES         ENERGY      TEMP
                                                         KJ/KG-MOL      K
 FUEL        C2H4                         1.0000000     52579.505    300.000
 OXIDANT     O2                           3.0000000        54.358    300.000

 O/F=    2.85162  %FUEL= 25.963090  R,EQ.RATIO= 1.200000  PHI,EQ.RATIO= 1.200000

 UNBURNED GAS

 P1, BAR           1.0000
 T1, K             300.00
 H1, KJ/KG         487.88
 M1, (1/n)         30.871
 GAMMA1            1.3328
 SON VEL1,M/SEC     328.2

 BURNED GAS

 P, BAR            35.542
 T, K             3982.92
 RHO, KG/CU M    2.2907 0
 H, KJ/KG         2637.34
 U, KJ/KG         1085.72
 G, KJ/KG        -46019.1
 S, KJ/(KG)(K)    12.2163

 M, (1/n)          21.343
 (dLV/dLP)t      -1.08368
 (dLV/dLT)p        2.2873
 Cp, KJ/(KG)(K)    9.7873
 GAMMAs            1.1423
 SON VEL,M/SEC     1331.3

 DETONATION PARAMETERS

 P/P1              35.542
 T/T1              13.276
 M/M1              0.6913
 RHO/RHO1          1.8508
 DET MACH NUMBER   7.5085
 DET VEL,M/SEC     2464.0

 MOLE FRACTIONS

 *C              1.7921-8
 *CH             4.0964-9
 CH2             2.4512-9
 CH3             1.1293-9
 CH2OH           3.363-10
 CH3O            1.336-10
 CH4             1.125-10
 CH3OH           9.077-12
 CH3OOH          2.217-15
 *CO             3.0573-1
 *CO2            8.9284-2
 COOH            1.4012-5
 *C2             3.259-13
 C2H             2.440-12
 C2H2,acetylene  5.478-12
 C2H2,vinylidene 9.218-14
 CH2CO,ketene    3.722-11
 O(CH)2O         6.120-13
 HO(CO)2OH       8.867-14
 C2H3,vinyl      4.248-15
 CH3CO,acetyl    4.408-14
 C2H4            4.530-16
 CH3CHO,ethanal  4.409-16
 CH3COOH         2.100-16
 C2O             1.3326-9
 C3O2            1.244-12
 *H              7.4775-2
 HCO             2.8823-5
 HCCO            7.563-11
 HO2             2.2087-4
 *H2             8.2799-2
 HCHO,formaldehy 3.8947-7
 HCOOH           9.3620-7
 H2O             2.1493-1
 H2O2            1.6221-5
 *O              5.6950-2
 *OH             1.1959-1
 *O2             5.5672-2
 O3              6.5942-7

  * THERMODYNAMIC PROPERTIES FITTED TO 20000.K


                     DETONATION PROPERTIES OF AN IDEAL REACTING GAS
 CASE =                

             REACTANT                       MOLES         ENERGY      TEMP
                                                         KJ/KG-MOL      K
 FUEL        C2H4                         1.0000000     52579.505    300.000
 OXIDANT     O2                           3.0000000        54.358    300.000

 O/F=    2.63227  %FUEL= 27.531022  R,EQ.RATIO= 1.300000  PHI,EQ.RATIO= 1.300000

 UNBURNED GAS

 P1, BAR           1.0000
 T1, K             300.00
 H1, KJ/KG         517.24
 M1, (1/n)         30.806
 GAMMA1            1.3298
 SON VEL1,M/SEC     328.1

 BURNED GAS

 P, BAR            36.576
 T, K             3996.23
 RHO, KG/CU M    2.2850 0
 H, KJ/KG         2736.03
 U, KJ/KG         1135.29
 G, KJ/KG        -46986.0
 S, KJ/(KG)(K)    12.4422

 M, (1/n)          20.757
 (dLV/dLP)t      -1.08128
 (dLV/dLT)p        2.2421
 Cp, KJ/(KG)(K)    9.7158
 GAMMAs            1.1441
 SON VEL,M/SEC     1353.3

 DETONATION PARAMETERS

 P/P1              36.576
 T/T1              13.321
 M/M1              0.6738
 RHO/RHO1          1.8501
 DET MACH NUMBER   7.6302
 DET VEL,M/SEC     2503.8

 MOLE FRACTIONS

 *C              2.4303-8
 *CH             6.0539-9
 CH2             3.9101-9
 CH3             1.9398-9
 CH2OH           4.882-10
 CH3O            1.950-10
 CH4             2.091-10
 CH3OH           1.428-11
 CH3OOH          3.021-15
 *CO             3.2737-1
 *CO2            7.9997-2
 COOH            1.4100-5
 *C2             5.800-13
 C2H             4.668-12
 C2H2,acetylene  1.118-11
 C2H2,vinylidene 1.913-13
 CH2CO,ketene    6.346-11
 O(CH)2O         8.835-13
 HO(CO)2OH       8.995-14
 C2H3,vinyl      9.622-15
 CH3CO,acetyl    8.334-14
 C2H4            1.105-15
 CH3CHO,ethanal  9.048-16
 CH3COOH         3.613-16
 C2O             1.9324-9
 C3O2            1.938-12
 *H              8.2053-2
 HCO             3.4581-5
 HCCO            1.195-10
 HO2             1.7516-4
 *H2             9.7933-2
 HCHO,formaldehy 5.0801-7
 HCOOH           1.0237-6
 H2O             2.1305-1
 H2O2            1.3982-5
 *O              4.8820-2
 *OH             1.1056-1
 *O2             3.9976-2
 O3              4.1550-7

  * THERMODYNAMIC PROPERTIES FITTED TO 20000.K


                     DETONATION PROPERTIES OF AN IDEAL REACTING GAS
 CASE =                

             REACTANT                       MOLES         ENERGY      TEMP
                                                         KJ/KG-MOL      K
 FUEL        C2H4                         1.0000000     52579.505    300.000
 OXIDANT     O2                           3.0000000        54.358    300.000

 O/F=    2.44425  %FUEL= 29.033921  R,EQ.RATIO= 1.400000  PHI,EQ.RATIO= 1.400000

 UNBURNED GAS

 P1, BAR           1.0000
 T1, K             300.00
 H1, KJ/KG         545.38
 M1, (1/n)         30.743
 GAMMA1            1.3270
 SON VEL1,M/SEC     328.1

 BURNED GAS

 P, BAR            37.514
 T, K             4001.21
 RHO, KG/CU M    2.2792 0
 H, KJ/KG         2827.65
 U, KJ/KG         1181.76
 G, KJ/KG        -47801.6
 S, KJ/(KG)(K)    12.6535

 M, (1/n)          20.213
 (dLV/dLP)t      -1.07736
 (dLV/dLT)p        2.1771
 Cp, KJ/(KG)(K)    9.5177
 GAMMAs            1.1461
 SON VEL,M/SEC     1373.5

 DETONATION PARAMETERS

 P/P1              37.514
 T/T1              13.337
 M/M1              0.6575
 RHO/RHO1          1.8493
 DET MACH NUMBER   7.7405
 DET VEL,M/SEC     2539.9

 MOLE FRACTIONS

 *C              3.1345-8
 *CH             8.5123-9
 CH2             5.9724-9
 CH3             3.2157-9
 CH2OH           6.823-10
 CH3O            2.731-10
 CH4             3.771-10
 CH3OH           2.172-11
 CH3OOH          3.910-15
 *CO             3.4709-1
 *CO2            7.1246-2
 COOH            1.3845-5
 *C2             9.670-13
 C2H             8.443-12
 C2H2,acetylene  2.188-11
 C2H2,vinylidene 3.766-13
 CH2CO,ketene    1.042-10
 O(CH)2O         1.224-12
 HO(CO)2OH       8.806-14
 C2H3,vinyl      2.066-14
 CH3CO,acetyl    1.502-13
 C2H4            2.576-15
 CH3CHO,ethanal  1.775-15
 CH3COOH         5.958-16
 OHCH2COOH       1.334-16
 C2O             2.6801-9
 *C3             1.501-16
 C3O2            2.896-12
 *H              8.8382-2
 HCO             4.0387-5
 HCCO            1.808-10
 HO2             1.3471-4
 *H2             1.1453-1
 HCHO,formaldehy 6.4623-7
 HCOOH           1.0947-6
 H2O             2.0941-1
 H2O2            1.1711-5
 *O              4.0779-2
 *OH             1.0029-1
 *O2             2.8060-2
 O3              2.4936-7

  * THERMODYNAMIC PROPERTIES FITTED TO 20000.K


                     DETONATION PROPERTIES OF AN IDEAL REACTING GAS
 CASE =                

             REACTANT                       MOLES         ENERGY      TEMP
                                                         KJ/KG-MOL      K
 FUEL        C2H4                         1.0000000     52579.505    300.000
 OXIDANT     O2                           3.0000000        54.358    300.000

 O/F=    2.28130  %FUEL= 30.475751  R,EQ.RATIO= 1.500000  PHI,EQ.RATIO= 1.500000

 UNBURNED GAS

 P1, BAR           1.0000
 T1, K             300.00
 H1, KJ/KG         572.38
 M1, (1/n)         30.684
 GAMMA1            1.3244
 SON VEL1,M/SEC     328.1

 BURNED GAS

 P, BAR            38.350
 T, K             3997.90
 RHO, KG/CU M    2.2734 0
 H, KJ/KG         2911.99
 U, KJ/KG         1225.09
 G, KJ/KG        -48464.9
 S, KJ/(KG)(K)    12.8510

 M, (1/n)          19.705
 (dLV/dLP)t      -1.07214
 (dLV/dLT)p        2.0952
 Cp, KJ/(KG)(K)    9.2011
 GAMMAs            1.1483
 SON VEL,M/SEC     1391.8

 DETONATION PARAMETERS

 P/P1              38.350
 T/T1              13.326
 M/M1              0.6422
 RHO/RHO1          1.8481
 DET MACH NUMBER   7.8393
 DET VEL,M/SEC     2572.2

 MOLE FRACTIONS

 *C              3.8590-8
 *CH             1.1437-8
 CH2             8.7776-9
 CH3             5.1729-9
 CH2OH           9.219-10
 CH3O            3.685-10
 CH4             6.630-10
 CH3OH           3.207-11
 CH3OOH          4.818-15
 *CO             3.6499-1
 *CO2            6.3081-2
 COOH            1.3278-5
 *C2             1.521-12
 C2H             1.455-11
 C2H2,acetylene  4.134-11
 C2H2,vinylidene 7.088-13
 CH2CO,ketene    1.659-10
 O(CH)2O         1.636-12
 HO(CO)2OH       8.336-14
 C2H3,vinyl      4.242-14
 CH3CO,acetyl    2.598-13
 C2H4            5.789-15
 CH3CHO,ethanal  3.354-15
 CH3COOH         9.475-16
 OHCH2COOH       1.779-16
 C2O             3.5736-9
 *C3             3.026-16
 C3O2            4.177-12
 *H              9.3519-2
 HCO             4.6030-5
 HCCO            2.630-10
 HO2             1.0026-4
 *H2             1.3261-1
 HCHO,formaldehy 8.0424-7
 HCOOH           1.1465-6
 H2O             2.0407-1
 H2O2            9.5178-6
 *O              3.3148-2
 *OH             8.9200-2
 *O2             1.9200-2
 O3              1.4197-7

  * THERMODYNAMIC PROPERTIES FITTED TO 20000.K


                     DETONATION PROPERTIES OF AN IDEAL REACTING GAS
 CASE =                

             REACTANT                       MOLES         ENERGY      TEMP
                                                         KJ/KG-MOL      K
 FUEL        C2H4                         1.0000000     52579.505    300.000
 OXIDANT     O2                           3.0000000        54.358    300.000

 O/F=    2.13872  %FUEL= 31.860159  R,EQ.RATIO= 1.600000  PHI,EQ.RATIO= 1.600000

 UNBURNED GAS

 P1, BAR           1.0000
 T1, K             300.00
 H1, KJ/KG         598.31
 M1, (1/n)         30.626
 GAMMA1            1.3219
 SON VEL1,M/SEC     328.1

 BURNED GAS

 P, BAR            39.081
 T, K             3986.29
 RHO, KG/CU M    2.2674 0
 H, KJ/KG         2988.79
 U, KJ/KG         1265.21
 G, KJ/KG        -48975.0
 S, KJ/(KG)(K)    13.0356

 M, (1/n)          19.230
 (dLV/dLP)t      -1.06594
 (dLV/dLT)p        2.0006
 Cp, KJ/(KG)(K)    8.7842
 GAMMAs            1.1508
 SON VEL,M/SEC     1408.4

 DETONATION PARAMETERS

 P/P1              39.081
 T/T1              13.288
 M/M1              0.6279
 RHO/RHO1          1.8467
 DET MACH NUMBER   7.9266
 DET VEL,M/SEC     2600.9

 MOLE FRACTIONS

 *C              4.5468-8
 *CH             1.4728-8
 CH2             1.2458-8
 CH3             8.1088-9
 CH2OH           1.2075-9
 CH3O            4.802-10
 CH4             1.1423-9
 CH3OH           4.612-11
 CH3OOH          5.667-15
 *CO             3.8120-1
 *CO2            5.5523-2
 COOH            1.2443-5
 *C2             2.271-12
 C2H             2.401-11
 C2H2,acetylene  7.598-11
 C2H2,vinylidene 1.284-12
 CH2CO,ketene    2.573-10
 O(CH)2O         2.117-12
 HO(CO)2OH       7.636-14
 C2H3,vinyl      8.388-14
 CH3CO,acetyl    4.338-13
 C2H4            1.264-14
 CH3CHO,ethanal  6.143-15
 CH3COOH         1.460-15
 OHCH2COOH       2.281-16
 C2O             4.5999-9
 *C3             5.782-16
 C3O2            5.848-12
 *H              9.7243-2
 HCO             5.1288-5
 HCCO            3.700-10
 HO2             7.2028-5
 *H2             1.5216-1
 HCHO,formaldehy 9.8149-7
 HCOOH           1.1772-6
 H2O             1.9707-1
 H2O2            7.4912-6
 *O              2.6181-2
 *OH             7.7701-2
 *O2             1.2768-2
 O3              7.6345-8

  * THERMODYNAMIC PROPERTIES FITTED TO 20000.K


                     DETONATION PROPERTIES OF AN IDEAL REACTING GAS
 CASE =                

             REACTANT                       MOLES         ENERGY      TEMP
                                                         KJ/KG-MOL      K
 FUEL        C2H4                         1.0000000     52579.505    300.000
 OXIDANT     O2                           3.0000000        54.358    300.000

 O/F=    2.01291  %FUEL= 33.190510  R,EQ.RATIO= 1.700000  PHI,EQ.RATIO= 1.700000

 UNBURNED GAS

 P1, BAR           1.0000
 T1, K             300.00
 H1, KJ/KG         623.22
 M1, (1/n)         30.572
 GAMMA1            1.3195
 SON VEL1,M/SEC     328.1

 BURNED GAS

 P, BAR            39.701
 T, K             3966.45
 RHO, KG/CU M    2.2612 0
 H, KJ/KG         3057.80
 U, KJ/KG         1302.05
 G, KJ/KG        -49331.4
 S, KJ/(KG)(K)    13.2081

 M, (1/n)          18.783
 (dLV/dLP)t      -1.05917
 (dLV/dLT)p        1.8989
 Cp, KJ/(KG)(K)    8.2952
 GAMMAs            1.1537
 SON VEL,M/SEC     1423.3

 DETONATION PARAMETERS

 P/P1              39.701
 T/T1              13.221
 M/M1              0.6144
 RHO/RHO1          1.8449
 DET MACH NUMBER   8.0026
 DET VEL,M/SEC     2625.8

 MOLE FRACTIONS

 *C              5.1372-8
 *CH             1.8223-8
 CH2             1.7126-8
 CH3             1.2429-8
 CH2OH           1.5363-9
 CH3O            6.058-10
 CH4             1.9362-9
 CH3OH           6.477-11
 CH3OOH          6.366-15
 *CO             3.9582-1
 *CO2            4.8572-2
 COOH            1.1393-5
 *C2             3.230-12
 C2H             3.816-11
 C2H2,acetylene  1.365-10
 C2H2,vinylidene 2.250-12
 CH2CO,ketene    3.906-10
 O(CH)2O         2.660-12
 HO(CO)2OH       6.771-14
 C2H3,vinyl      1.606-13
 CH3CO,acetyl    7.025-13
 C2H4            2.698-14
 CH3CHO,ethanal  1.096-14
 CH3COOH         2.187-15
 OHCH2COOH       2.818-16
 C2O             5.7348-9
 *C3             1.054-15
 C3O2            7.984-12
 *H              9.9381-2
 HCO             5.5941-5
 HCCO            5.049-10
 HO2             4.9819-5
 *H2             1.7314-1
 HCHO,formaldehy 1.1767-6
 HCOOH           1.1857-6
 H2O             1.8847-1
 H2O2            5.6971-6
 *O              2.0057-2
 *OH             6.6212-2
 *O2             8.2274-3
 O3              3.8594-8

  * THERMODYNAMIC PROPERTIES FITTED TO 20000.K


                     DETONATION PROPERTIES OF AN IDEAL REACTING GAS
 CASE =                

             REACTANT                       MOLES         ENERGY      TEMP
                                                         KJ/KG-MOL      K
 FUEL        C2H4                         1.0000000     52579.505    300.000
 OXIDANT     O2                           3.0000000        54.358    300.000

 O/F=    1.90108  %FUEL= 34.469908  R,EQ.RATIO= 1.800000  PHI,EQ.RATIO= 1.800000

 UNBURNED GAS

 P1, BAR           1.0000
 T1, K             300.00
 H1, KJ/KG         647.18
 M1, (1/n)         30.519
 GAMMA1            1.3173
 SON VEL1,M/SEC     328.1

 BURNED GAS

 P, BAR            40.207
 T, K             3938.52
 RHO, KG/CU M    2.2547 0
 H, KJ/KG         3118.84
 U, KJ/KG         1335.57
 G, KJ/KG        -49535.6
 S, KJ/(KG)(K)    13.3691

 M, (1/n)          18.363
 (dLV/dLP)t      -1.05227
 (dLV/dLT)p        1.7960
 Cp, KJ/(KG)(K)    7.7676
 GAMMAs            1.1571
 SON VEL,M/SEC     1436.4

 DETONATION PARAMETERS

 P/P1              40.207
 T/T1              13.128
 M/M1              0.6017
 RHO/RHO1          1.8428
 DET MACH NUMBER   8.0671
 DET VEL,M/SEC     2647.0

 MOLE FRACTIONS

 *C              5.5759-8
 *CH             2.1710-8
 CH2             2.2859-8
 CH3             1.8683-8
 CH2OH           1.9016-9
 CH3O            7.408-10
 CH4             3.2394-9
 CH3OH           8.900-11
 CH3OOH          6.833-15
 *CO             4.0899-1
 *CO2            4.2212-2
 COOH            1.0189-5
 *C2             4.397-12
 C2H             5.867-11
 C2H2,acetylene  2.411-10
 C2H2,vinylidene 3.835-12
 CH2CO,ketene    5.822-10
 O(CH)2O         3.252-12
 HO(CO)2OH       5.810-14
 C2H3,vinyl      2.996-13
 CH3CO,acetyl    1.108-12
 C2H4            5.662-14
 CH3CHO,ethanal  1.913-14
 CH3COOH         3.197-15
 OHCH2COOH       3.358-16
 C2H5            1.309-16
 C2O             6.9454-9
 *C3             1.845-15
 C3O2            1.067-11
 *H              9.9825-2
 HCO             5.9789-5
 HCCO            6.709-10
 HO2             3.3078-5
 *H2             1.9543-1
 HCHO,formaldehy 1.3876-6
 HCOOH           1.1713-6
 H2O             1.7832-1
 H2O2            4.1758-6
 *O              1.4878-2
 *OH             5.5117-2
 *O2             5.1210-3
 O3              1.8257-8

  * THERMODYNAMIC PROPERTIES FITTED TO 20000.K


                     DETONATION PROPERTIES OF AN IDEAL REACTING GAS
 CASE =                

             REACTANT                       MOLES         ENERGY      TEMP
                                                         KJ/KG-MOL      K
 FUEL        C2H4                         1.0000000     52579.505    300.000
 OXIDANT     O2                           3.0000000        54.358    300.000

 O/F=    1.80102  %FUEL= 35.701226  R,EQ.RATIO= 1.900000  PHI,EQ.RATIO= 1.900000

 UNBURNED GAS

 P1, BAR           1.0000
 T1, K             300.00
 H1, KJ/KG         670.23
 M1, (1/n)         30.469
 GAMMA1            1.3152
 SON VEL1,M/SEC     328.1

 BURNED GAS

 P, BAR            40.597
 T, K             3902.81
 RHO, KG/CU M    2.2478 0
 H, KJ/KG         3171.83
 U, KJ/KG         1365.79
 G, KJ/KG        -49590.8
 S, KJ/(KG)(K)    13.5191

 M, (1/n)          17.967
 (dLV/dLP)t      -1.04562
 (dLV/dLT)p        1.6969
 Cp, KJ/(KG)(K)    7.2348
 GAMMAs            1.1609
 SON VEL,M/SEC     1447.9

 DETONATION PARAMETERS

 P/P1              40.597
 T/T1              13.009
 M/M1              0.5897
 RHO/RHO1          1.8402
 DET MACH NUMBER   8.1203
 DET VEL,M/SEC     2664.5

 MOLE FRACTIONS

 *C              5.8254-8
 *CH             2.4958-8
 CH2             2.9695-8
 CH3             2.7614-8
 CH2OH           2.2925-9
 CH3O            8.792-10
 CH4             5.3656-9
 CH3OH           1.198-10
 CH3OOH          7.007-15
 *CO             4.2082-1
 *CO2            3.6420-2
 COOH            8.8962-6
 *C2             5.751-12
 C2H             8.765-11
 C2H2,acetylene  4.204-10
 C2H2,vinylidene 6.385-12
 CH2CO,ketene    8.551-10
 O(CH)2O         3.877-12
 HO(CO)2OH       4.820-14
 C2H3,vinyl      5.466-13
 CH3CO,acetyl    1.706-12
 C2H4            1.174-13
 CH3CHO,ethanal  3.279-14
 CH3COOH         4.567-15
 OHCH2COOH       3.865-16
 C2H5            2.835-16
 C2O             8.1949-9
 *C3             3.122-15
 C3H3,2-propynl  2.192-16
 C3O2            1.402-11
 *H              9.8554-2
 HCO             6.2669-5
 HCCO            8.703-10
 HO2             2.1022-5
 *H2             2.1889-1
 HCHO,formaldehy 1.6114-6
 HCOOH           1.1345-6
 H2O             1.6672-1
 H2O2            2.9420-6
 *O              1.0668-2
 *OH             4.4757-2
 *O2             3.0695-3
 O3              8.0456-9

  * THERMODYNAMIC PROPERTIES FITTED TO 20000.K


                     DETONATION PROPERTIES OF AN IDEAL REACTING GAS
 CASE =                

             REACTANT                       MOLES         ENERGY      TEMP
                                                         KJ/KG-MOL      K
 FUEL        C2H4                         1.0000000     52579.505    300.000
 OXIDANT     O2                           3.0000000        54.358    300.000

 O/F=    1.71097  %FUEL= 36.887125  R,EQ.RATIO= 2.000000  PHI,EQ.RATIO= 2.000000

 UNBURNED GAS

 P1, BAR           1.0000
 T1, K             300.00
 H1, KJ/KG         692.44
 M1, (1/n)         30.421
 GAMMA1            1.3132
 SON VEL1,M/SEC     328.1

 BURNED GAS

 P, BAR            40.872
 T, K             3859.80
 RHO, KG/CU M    2.2407 0
 H, KJ/KG         3216.85
 U, KJ/KG         1392.77
 G, KJ/KG        -49503.4
 S, KJ/(KG)(K)    13.6588

 M, (1/n)          17.594
 (dLV/dLP)t      -1.03947
 (dLV/dLT)p        1.6056
 Cp, KJ/(KG)(K)    6.7239
 GAMMAs            1.1651
 SON VEL,M/SEC     1457.8

 DETONATION PARAMETERS

 P/P1              40.872
 T/T1              12.866
 M/M1              0.5783
 RHO/RHO1          1.8373
 DET MACH NUMBER   8.1624
 DET VEL,M/SEC     2678.4

 MOLE FRACTIONS

 *C              5.8726-8
 *CH             2.7756-8
 CH2             3.7638-8
 CH3             4.0230-8
 CH2OH           2.6945-9
 CH3O            1.0137-9
 CH4             8.8225-9
 CH3OH           1.582-10
 CH3OOH          6.862-15
 *CO             4.3144-1
 *CO2            3.1166-2
 COOH            7.5766-6
 *C2             7.262-12
 C2H             1.278-10
 C2H2,acetylene  7.272-10
 C2H2,vinylidene 1.043-11
 CH2CO,ketene    1.2415-9
 O(CH)2O         4.515-12
 HO(CO)2OH       3.859-14
 C2H3,vinyl      9.807-13
 CH3CO,acetyl    2.576-12
 C2H4            2.419-13
 C2H4O,ethylen-o 1.333-16
 CH3CHO,ethanal  5.537-14
 CH3COOH         6.389-15
 OHCH2COOH       4.297-16
 C2H5            6.040-16
 C2O             9.4492-9
 *C3             5.142-15
 C3H3,2-propynl  5.029-16
 C3O2            1.817-11
 *H              9.5644-2
 HCO             6.4469-5
 HCCO            1.1060-9
 HO2             1.2752-5
 *H2             2.4329-1
 HCHO,formaldehy 1.8441-6
 HCOOH           1.0766-6
 H2O             1.5382-1
 H2O2            1.9867-6
 *O              7.3834-3
 *OH             3.5403-2
 *O2             1.7665-3
 O3              3.2896-9

  * THERMODYNAMIC PROPERTIES FITTED TO 20000.K



