
 *******************************************************************************

         NASA-GLENN CHEMICAL EQUILIBRIUM PROGRAM CEA2, MAY 21, 2004
                   BY  BONNIE MCBRIDE AND SANFORD GORDON
      REFS: NASA RP-1311, PART I, 1994 AND NASA RP-1311, PART II, 1996

 *******************************************************************************



 problem    phi,eq.ratio=2.1,2.2,2.3,2.4,2.5,2.6,2.7,2.8,2.9,3,3.1,3.2,3.3,3.4,3.
 5,3.6,
       det   t,k=300,  p,bar=1,
 react
   fuel=C2H6 moles=1 t,k=300
   oxid=O2 moles=3.5 t,k=300
 output
      trace=1e-16 siunits short
 end


                     DETONATION PROPERTIES OF AN IDEAL REACTING GAS
 CASE =                

             REACTANT                       MOLES         ENERGY      TEMP
                                                         KJ/KG-MOL      K
 FUEL        C2H6                         1.0000000    -83754.210    300.000
 OXIDANT     O2                           3.5000000        54.358    300.000

 O/F=    1.77363  %FUEL= 36.053843  R,EQ.RATIO= 2.100000  PHI,EQ.RATIO= 2.100000

 UNBURNED GAS

 P1, BAR           1.0000
 T1, K             300.00
 H1, KJ/KG       -1003.16
 M1, (1/n)         31.275
 GAMMA1            1.2788
 SON VEL1,M/SEC     319.4

 BURNED GAS

 P, BAR            39.996
 T, K             3398.97
 RHO, KG/CU M    2.2922 0
 H, KJ/KG         1402.51
 U, KJ/KG         -342.34
 G, KJ/KG        -47949.9
 S, KJ/(KG)(K)    14.5198

 M, (1/n)          16.197
 (dLV/dLP)t      -1.01492
 (dLV/dLT)p        1.2571
 Cp, KJ/(KG)(K)    4.9009
 GAMMAs            1.1773
 SON VEL,M/SEC     1433.3

 DETONATION PARAMETERS

 P/P1              39.996
 T/T1              11.330
 M/M1              0.5179
 RHO/RHO1          1.8282
 DET MACH NUMBER   8.2048
 DET VEL,M/SEC     2620.3

 MOLE FRACTIONS

 *C              4.0001-9
 *CH             3.6993-9
 CH2             1.4575-8
 CH3             5.0640-8
 CH2OH           2.4104-9
 CH3O            7.225-10
 CH4             2.9473-8
 CH3OH           3.491-10
 CH3OOH          3.839-15
 *CO             3.6002-1
 *CO2            2.8352-2
 COOH            3.7912-6
 *C2             4.379-13
 C2H             2.652-11
 C2H2,acetylene  7.244-10
 C2H2,vinylidene 5.113-12
 CH2CO,ketene    1.4291-9
 O(CH)2O         3.449-12
 HO(CO)2OH       2.979-14
 C2H3,vinyl      8.897-13
 CH3CO,acetyl    2.818-12
 C2H4            7.059-13
 C2H4O,ethylen-o 2.013-16
 CH3CHO,ethanal  1.403-13
 CH3COOH         1.606-14
 OHCH2COOH       6.435-16
 C2H5            1.560-15
 C2H6            1.648-16
 C2O             1.8724-9
 *C3             4.507-16
 C3H3,2-propynl  5.247-16
 C3O2            8.464-12
 *H              4.2969-2
 HCO             3.2805-5
 HCCO            4.224-10
 HO2             1.7704-6
 *H2             3.3827-1
 HCHO,formaldehy 2.0418-6
 HCOOH           1.1951-6
 H2O             2.1643-1
 H2O2            6.0306-7
 *O              8.8803-4
 *OH             1.2822-2
 *O2             2.1961-4
 O3              6.351-11

  * THERMODYNAMIC PROPERTIES FITTED TO 20000.K


                     DETONATION PROPERTIES OF AN IDEAL REACTING GAS
 CASE =                

             REACTANT                       MOLES         ENERGY      TEMP
                                                         KJ/KG-MOL      K
 FUEL        C2H6                         1.0000000    -83754.210    300.000
 OXIDANT     O2                           3.5000000        54.358    300.000

 O/F=    1.69301  %FUEL= 37.133172  R,EQ.RATIO= 2.200000  PHI,EQ.RATIO= 2.200000

 UNBURNED GAS

 P1, BAR           1.0000
 T1, K             300.00
 H1, KJ/KG       -1033.24
 M1, (1/n)         31.254
 GAMMA1            1.2764
 SON VEL1,M/SEC     319.2

 BURNED GAS

 P, BAR            39.617
 T, K             3304.06
 RHO, KG/CU M    2.2829 0
 H, KJ/KG         1353.56
 U, KJ/KG         -381.82
 G, KJ/KG        -47061.7
 S, KJ/(KG)(K)    14.6532

 M, (1/n)          15.830
 (dLV/dLP)t      -1.01147
 (dLV/dLT)p        1.2015
 Cp, KJ/(KG)(K)    4.5079
 GAMMAs            1.1858
 SON VEL,M/SEC     1434.5

 DETONATION PARAMETERS

 P/P1              39.617
 T/T1              11.014
 M/M1              0.5065
 RHO/RHO1          1.8220
 DET MACH NUMBER   8.1891
 DET VEL,M/SEC     2613.7

 MOLE FRACTIONS

 *C              2.6633-9
 *CH             2.8934-9
 CH2             1.4707-8
 CH3             6.7860-8
 CH2OH           2.4893-9
 CH3O            7.079-10
 CH4             5.0201-8
 CH3OH           4.485-10
 CH3OOH          2.970-15
 *CO             3.6626-1
 *CO2            2.4692-2
 COOH            2.8569-6
 *C2             3.581-13
 C2H             2.920-11
 C2H2,acetylene  1.1637-9
 C2H2,vinylidene 6.911-12
 CH2CO,ketene    1.9884-9
 O(CH)2O         3.642-12
 HO(CO)2OH       2.216-14
 C2H3,vinyl      1.395-12
 CH3CO,acetyl    3.876-12
 C2H4            1.467-12
 C2H4O,ethylen-o 2.994-16
 CH3CHO,ethanal  2.360-13
 CH3COOH         2.260-14
 OHCH2COOH       6.705-16
 C2H5            3.146-15
 C2H6            4.214-16
 C2O             1.7085-9
 *C3             5.098-16
 C3H3,2-propynl  1.078-15
 C3O2            1.006-11
 *H              3.5586-2
 HCO             2.9617-5
 HCCO            4.507-10
 HO2             7.7499-7
 *H2             3.6718-1
 HCHO,formaldehy 2.2229-6
 HCOOH           1.0909-6
 H2O             1.9727-1
 H2O2            3.1839-7
 *O              4.4873-4
 *OH             8.4352-3
 *O2             9.3654-5
 O3              1.463-11

  * THERMODYNAMIC PROPERTIES FITTED TO 20000.K


                     DETONATION PROPERTIES OF AN IDEAL REACTING GAS
 CASE =                

             REACTANT                       MOLES         ENERGY      TEMP
                                                         KJ/KG-MOL      K
 FUEL        C2H6                         1.0000000    -83754.210    300.000
 OXIDANT     O2                           3.5000000        54.358    300.000

 O/F=    1.61940  %FUEL= 38.176671  R,EQ.RATIO= 2.300000  PHI,EQ.RATIO= 2.300000

 UNBURNED GAS

 P1, BAR           1.0000
 T1, K             300.00
 H1, KJ/KG       -1062.32
 M1, (1/n)         31.234
 GAMMA1            1.2742
 SON VEL1,M/SEC     319.0

 BURNED GAS

 P, BAR            39.101
 T, K             3203.08
 RHO, KG/CU M    2.2731 0
 H, KJ/KG         1297.14
 U, KJ/KG         -423.01
 G, KJ/KG        -46029.6
 S, KJ/(KG)(K)    14.7754

 M, (1/n)          15.482
 (dLV/dLP)t      -1.00867
 (dLV/dLT)p        1.1556
 Cp, KJ/(KG)(K)    4.1714
 GAMMAs            1.1951
 SON VEL,M/SEC     1433.8

 DETONATION PARAMETERS

 P/P1              39.101
 T/T1              10.677
 M/M1              0.4957
 RHO/RHO1          1.8153
 DET MACH NUMBER   8.1594
 DET VEL,M/SEC     2602.8

 MOLE FRACTIONS

 *C              1.6386-9
 *CH             2.1115-9
 CH2             1.4144-8
 CH3             8.8919-8
 CH2OH           2.4839-9
 CH3O            6.664-10
 CH4             8.5466-8
 CH3OH           5.668-10
 CH3OOH          2.165-15
 *CO             3.7161-1
 *CO2            2.1501-2
 COOH            2.0888-6
 *C2             2.699-13
 C2H             3.045-11
 C2H2,acetylene  1.8398-9
 C2H2,vinylidene 8.981-12
 CH2CO,ketene    2.7315-9
 O(CH)2O         3.746-12
 HO(CO)2OH       1.605-14
 C2H3,vinyl      2.121-12
 CH3CO,acetyl    5.198-12
 C2H4            3.032-12
 C2H4O,ethylen-o 4.338-16
 CH3CHO,ethanal  3.929-13
 CH3COOH         3.144-14
 OHCH2COOH       6.799-16
 C2H5            6.219-15
 C2H6            1.077-15
 C2O             1.4906-9
 *C3             5.382-16
 C3H3,2-propynl  2.159-15
 C3H4,propyne    1.250-16
 C3O2            1.174-11
 *H              2.8514-2
 HCO             2.5967-5
 HCCO            4.639-10
 HO2             3.1591-7
 *H2             3.9477-1
 HCHO,formaldehy 2.3818-6
 HCOOH           9.7968-7
 H2O             1.7800-1
 H2O2            1.5856-7
 *O              2.1278-4
 *OH             5.3257-3
 *O2             3.7479-5
 O3              2.998-12

  * THERMODYNAMIC PROPERTIES FITTED TO 20000.K


                     DETONATION PROPERTIES OF AN IDEAL REACTING GAS
 CASE =                

             REACTANT                       MOLES         ENERGY      TEMP
                                                         KJ/KG-MOL      K
 FUEL        C2H6                         1.0000000    -83754.210    300.000
 OXIDANT     O2                           3.5000000        54.358    300.000

 O/F=    1.55193  %FUEL= 39.186093  R,EQ.RATIO= 2.400000  PHI,EQ.RATIO= 2.400000

 UNBURNED GAS

 P1, BAR           1.0000
 T1, K             300.00
 H1, KJ/KG       -1090.46
 M1, (1/n)         31.214
 GAMMA1            1.2720
 SON VEL1,M/SEC     318.8

 BURNED GAS

 P, BAR            38.451
 T, K             3096.70
 RHO, KG/CU M    2.2627 0
 H, KJ/KG         1233.52
 U, KJ/KG         -465.83
 G, KJ/KG        -44865.7
 S, KJ/(KG)(K)    14.8866

 M, (1/n)          15.151
 (dLV/dLP)t      -1.00641
 (dLV/dLT)p        1.1179
 Cp, KJ/(KG)(K)    3.8829
 GAMMAs            1.2051
 SON VEL,M/SEC     1431.1

 DETONATION PARAMETERS

 P/P1              38.451
 T/T1              10.322
 M/M1              0.4854
 RHO/RHO1          1.8082
 DET MACH NUMBER   8.1161
 DET VEL,M/SEC     2587.6

 MOLE FRACTIONS

 *C              9.272-10
 *CH             1.4336-9
 CH2             1.2960-8
 CH3             1.1427-7
 CH2OH           2.3970-9
 CH3O            6.028-10
 CH4             1.4634-7
 CH3OH           7.069-10
 CH3OOH          1.484-15
 *CO             3.7617-1
 *CO2            1.8712-2
 COOH            1.4790-6
 *C2             1.870-13
 C2H             3.010-11
 C2H2,acetylene  2.8762-9
 C2H2,vinylidene 1.126-11
 CH2CO,ketene    3.7190-9
 O(CH)2O         3.760-12
 HO(CO)2OH       1.131-14
 C2H3,vinyl      3.143-12
 CH3CO,acetyl    6.827-12
 C2H4            6.287-12
 C2H4O,ethylen-o 6.157-16
 CH3CHO,ethanal  6.515-13
 CH3COOH         4.350-14
 OHCH2COOH       6.731-16
 C2H5            1.214-14
 C2H6            2.781-15
 C2O             1.2425-9
 *C3             5.305-16
 C3H3,2-propynl  4.254-15
 C3H4,allene     1.444-16
 C3H4,propyne    3.044-16
 C3O2            1.351-11
 *H              2.2061-2
 HCO             2.2093-5
 HCCO            4.609-10
 HO2             1.1902-7
 *H2             4.2076-1
 HCHO,formaldehy 2.5154-6
 HCOOH           8.6588-7
 H2O             1.5895-1
 H2O2            7.4085-8
 *O              9.4040-5
 *OH             3.2146-3
 *O2             1.3965-5
 O3              5.396-13

  * THERMODYNAMIC PROPERTIES FITTED TO 20000.K


                     DETONATION PROPERTIES OF AN IDEAL REACTING GAS
 CASE =                

             REACTANT                       MOLES         ENERGY      TEMP
                                                         KJ/KG-MOL      K
 FUEL        C2H6                         1.0000000    -83754.210    300.000
 OXIDANT     O2                           3.5000000        54.358    300.000

 O/F=    1.48985  %FUEL= 40.163083  R,EQ.RATIO= 2.500000  PHI,EQ.RATIO= 2.500000

 UNBURNED GAS

 P1, BAR           1.0000
 T1, K             300.00
 H1, KJ/KG       -1117.68
 M1, (1/n)         31.195
 GAMMA1            1.2700
 SON VEL1,M/SEC     318.7

 BURNED GAS

 P, BAR            37.676
 T, K             2985.51
 RHO, KG/CU M    2.2518 0
 H, KJ/KG         1163.01
 U, KJ/KG         -510.13
 G, KJ/KG        -43581.1
 S, KJ/(KG)(K)    14.9871

 M, (1/n)          14.836
 (dLV/dLP)t      -1.00461
 (dLV/dLT)p        1.0872
 Cp, KJ/(KG)(K)    3.6363
 GAMMAs            1.2159
 SON VEL,M/SEC     1426.3

 DETONATION PARAMETERS

 P/P1              37.676
 T/T1               9.952
 M/M1              0.4756
 RHO/RHO1          1.8006
 DET MACH NUMBER   8.0592
 DET VEL,M/SEC     2568.2

 MOLE FRACTIONS

 *C              4.794-10
 *CH             9.017-10
 CH2             1.1308-8
 CH3             1.4452-7
 CH2OH           2.2379-9
 CH3O            5.242-10
 CH4             2.5389-7
 CH3OH           8.736-10
 CH3OOH          9.548-16
 *CO             3.8004-1
 *CO2            1.6264-2
 COOH            1.0113-6
 *C2             1.186-13
 C2H             2.822-11
 C2H2,acetylene  4.4720-9
 C2H2,vinylidene 1.364-11
 CH2CO,ketene    5.0412-9
 O(CH)2O         3.688-12
 HO(CO)2OH       7.754-15
 C2H3,vinyl      4.559-12
 CH3CO,acetyl    8.820-12
 C2H4            1.319-11
 C2H4O,ethylen-o 8.609-16
 CH3CHO,ethanal  1.084-12
 CH3COOH         6.018-14
 OHCH2COOH       6.522-16
 C2H5            2.361-14
 C2H6            7.343-15
 C2H5OH          1.248-16
 C2O             9.880-10
 *C3             4.881-16
 C3H3,2-propynl  8.310-15
 C3H4,allene     3.508-16
 C3H4,propyne    7.479-16
 C3O2            1.537-11
 *H              1.6436-2
 HCO             1.8216-5
 HCCO            4.425-10
 HO2             4.1036-8
 *H2             4.4497-1
 HCHO,formaldehy 2.6218-6
 HCOOH           7.5318-7
 H2O             1.4037-1
 H2O2            3.2237-8
 *O              3.8400-5
 *OH             1.8452-3
 *O2             4.7948-6
 O3              8.386-14

  * THERMODYNAMIC PROPERTIES FITTED TO 20000.K


                     DETONATION PROPERTIES OF AN IDEAL REACTING GAS
 CASE =                

             REACTANT                       MOLES         ENERGY      TEMP
                                                         KJ/KG-MOL      K
 FUEL        C2H6                         1.0000000    -83754.210    300.000
 OXIDANT     O2                           3.5000000        54.358    300.000

 O/F=    1.43255  %FUEL= 41.109178  R,EQ.RATIO= 2.600000  PHI,EQ.RATIO= 2.600000

 UNBURNED GAS

 P1, BAR           1.0000
 T1, K             300.00
 H1, KJ/KG       -1144.05
 M1, (1/n)         31.176
 GAMMA1            1.2680
 SON VEL1,M/SEC     318.5

 BURNED GAS

 P, BAR            36.783
 T, K             2870.09
 RHO, KG/CU M    2.2405 0
 H, KJ/KG         1085.97
 U, KJ/KG         -555.76
 G, KJ/KG        -42186.7
 S, KJ/(KG)(K)    15.0771

 M, (1/n)          14.536
 (dLV/dLP)t      -1.00321
 (dLV/dLT)p        1.0626
 Cp, KJ/(KG)(K)    3.4279
 GAMMAs            1.2273
 SON VEL,M/SEC     1419.5

 DETONATION PARAMETERS

 P/P1              36.783
 T/T1               9.567
 M/M1              0.4662
 RHO/RHO1          1.7926
 DET MACH NUMBER   7.9888
 DET VEL,M/SEC     2544.6

 MOLE FRACTIONS

 *C              2.249-10
 *CH             5.230-10
 CH2             9.3862-9
 CH3             1.8054-7
 CH2OH           2.0221-9
 CH3O            4.380-10
 CH4             4.5006-7
 CH3OH           1.0738-9
 CH3OOH          5.746-16
 *CO             3.8333-1
 *CO2            1.4102-2
 COOH            6.6523-7
 *C2             6.857-14
 C2H             2.509-11
 C2H2,acetylene  6.9620-9
 C2H2,vinylidene 1.604-11
 CH2CO,ketene    6.8381-9
 O(CH)2O         3.540-12
 HO(CO)2OH       5.155-15
 C2H3,vinyl      6.515-12
 CH3CO,acetyl    1.126-11
 C2H4            2.832-11
 C2H4O,ethylen-o 1.193-15
 CH3CHO,ethanal  1.824-12
 CH3COOH         8.378-14
 OHCH2COOH       6.202-16
 C2H5            4.622-14
 C2H6            2.011-14
 C2H5OH          2.395-16
 C2O             7.483-10
 *C3             4.193-16
 C3H3,2-propynl  1.626-14
 C3H4,allene     8.712-16
 C3H4,propyne    1.880-15
 C3O2            1.734-11
 *H              1.1751-2
 HCO             1.4529-5
 HCCO            4.106-10
 HO2             1.2788-8
 *H2             4.6733-1
 HCHO,formaldehy 2.7007-6
 HCOOH           6.4445-7
 H2O             1.2246-1
 H2O2            1.2943-8
 *O              1.4333-5
 *OH             1.0007-3
 *O2             1.4980-6
 O3              1.103-14

  * THERMODYNAMIC PROPERTIES FITTED TO 20000.K


                     DETONATION PROPERTIES OF AN IDEAL REACTING GAS
 CASE =                

             REACTANT                       MOLES         ENERGY      TEMP
                                                         KJ/KG-MOL      K
 FUEL        C2H6                         1.0000000    -83754.210    300.000
 OXIDANT     O2                           3.5000000        54.358    300.000

 O/F=    1.37949  %FUEL= 42.025821  R,EQ.RATIO= 2.700000  PHI,EQ.RATIO= 2.700000

 UNBURNED GAS

 P1, BAR           1.0000
 T1, K             300.00
 H1, KJ/KG       -1169.60
 M1, (1/n)         31.158
 GAMMA1            1.2662
 SON VEL1,M/SEC     318.4

 BURNED GAS

 P, BAR            35.784
 T, K             2751.14
 RHO, KG/CU M    2.2290 0
 H, KJ/KG         1002.94
 U, KJ/KG         -602.42
 G, KJ/KG        -40695.4
 S, KJ/(KG)(K)    15.1568

 M, (1/n)          14.249
 (dLV/dLP)t      -1.00215
 (dLV/dLT)p        1.0434
 Cp, KJ/(KG)(K)    3.2556
 GAMMAs            1.2392
 SON VEL,M/SEC     1410.4

 DETONATION PARAMETERS

 P/P1              35.784
 T/T1               9.170
 M/M1              0.4573
 RHO/RHO1          1.7844
 DET MACH NUMBER   7.9051
 DET VEL,M/SEC     2516.8

 MOLE FRACTIONS

 *C              9.495-11
 *CH             2.783-10
 CH2             7.4079-9
 CH3             2.2382-7
 CH2OH           1.7684-9
 CH3O            3.516-10
 CH4             8.2294-7
 CH3OH           1.3186-9
 CH3OOH          3.220-16
 *CO             3.8610-1
 *CO2            1.2174-2
 COOH            4.1904-7
 *C2             3.597-14
 C2H             2.120-11
 C2H2,acetylene  1.0942-8
 C2H2,vinylidene 1.840-11
 CH2CO,ketene    9.3377-9
 O(CH)2O         3.332-12
 HO(CO)2OH       3.313-15
 C2H3,vinyl      9.243-12
 CH3CO,acetyl    1.430-11
 C2H4            6.299-11
 C2H4O,ethylen-o 1.652-15
 CH3CHO,ethanal  3.135-12
 CH3COOH         1.182-13
 OHCH2COOH       5.799-16
 C2H5            9.217-14
 C2H6            5.810-14
 C2H5OH          4.711-16
 C2O             5.391-10
 *C3             3.367-16
 C3H3,2-propynl  3.229-14
 C3H4,allene     2.246-15
 C3H4,propyne    4.912-15
 C3O2            1.946-11
 C4H2,butadiyne  1.014-16
 *H              8.0337-3
 HCO             1.1187-5
 HCCO            3.688-10
 HO2             3.5508-9
 *H2             4.8783-1
 HCHO,formaldehy 2.7534-6
 HCOOH           5.4182-7
 H2O             1.0532-1
 H2O2            4.7407-9
 *O              4.8322-6
 *OH             5.0882-4
 *O2             4.1956-7
 O3              1.197-15

  * THERMODYNAMIC PROPERTIES FITTED TO 20000.K


                     DETONATION PROPERTIES OF AN IDEAL REACTING GAS
 CASE =                

             REACTANT                       MOLES         ENERGY      TEMP
                                                         KJ/KG-MOL      K
 FUEL        C2H6                         1.0000000    -83754.210    300.000
 OXIDANT     O2                           3.5000000        54.358    300.000

 O/F=    1.33022  %FUEL= 42.914365  R,EQ.RATIO= 2.800000  PHI,EQ.RATIO= 2.800000

 UNBURNED GAS

 P1, BAR           1.0000
 T1, K             300.00
 H1, KJ/KG       -1194.37
 M1, (1/n)         31.141
 GAMMA1            1.2644
 SON VEL1,M/SEC     318.2

 BURNED GAS

 P, BAR            34.692
 T, K             2629.50
 RHO, KG/CU M    2.2176 0
 H, KJ/KG          914.63
 U, KJ/KG         -649.77
 G, KJ/KG        -39122.3
 S, KJ/(KG)(K)    15.2261

 M, (1/n)          13.975
 (dLV/dLP)t      -1.00138
 (dLV/dLT)p        1.0290
 Cp, KJ/(KG)(K)    3.1173
 GAMMAs            1.2511
 SON VEL,M/SEC     1399.0

 DETONATION PARAMETERS

 P/P1              34.692
 T/T1               8.765
 M/M1              0.4488
 RHO/RHO1          1.7763
 DET MACH NUMBER   7.8085
 DET VEL,M/SEC     2485.0

 MOLE FRACTIONS

 *C              3.585-11
 *CH             1.354-10
 CH2             5.5615-9
 CH3             2.7687-7
 CH2OH           1.4972-9
 CH3O            2.710-10
 CH4             1.5687-6
 CH3OH           1.6248-9
 CH3OOH          1.672-16
 *CO             3.8846-1
 *CO2            1.0436-2
 COOH            2.5136-7
 *C2             1.709-14
 C2H             1.707-11
 C2H2,acetylene  1.7541-8
 C2H2,vinylidene 2.073-11
 CH2CO,ketene    1.2928-8
 O(CH)2O         3.079-12
 HO(CO)2OH       2.047-15
 C2H3,vinyl      1.314-11
 CH3CO,acetyl    1.819-11
 C2H4            1.474-10
 C2H4O,ethylen-o 2.304-15
 CH3CHO,ethanal  5.558-12
 CH3COOH         1.701-13
 OHCH2COOH       5.340-16
 C2H5            1.899-13
 C2H6            1.803-13
 C2H5OH          9.625-16
 C2O             3.693-10
 *C3             2.539-16
 C3H3,2-propynl  6.607-14
 C3H4,allene     6.124-15
 C3H4,propyne    1.360-14
 C3H5,allyl      1.654-16
 C3H6,propylene  1.241-16
 C3O2            2.187-11
 C4H2,butadiyne  2.503-16
 *H              5.2320-3
 HCO             8.2994-6
 HCCO            3.214-10
 HO2             8.641-10
 *H2             5.0657-1
 HCHO,formaldehy 2.7822-6
 HCOOH           4.4673-7
 H2O             8.9050-2
 H2O2            1.5634-9
 *O              1.4521-6
 *OH             2.4047-4
 *O2             1.0359-7
 O3              1.044-16

  * THERMODYNAMIC PROPERTIES FITTED TO 20000.K


                     DETONATION PROPERTIES OF AN IDEAL REACTING GAS
 CASE =                

             REACTANT                       MOLES         ENERGY      TEMP
                                                         KJ/KG-MOL      K
 FUEL        C2H6                         1.0000000    -83754.210    300.000
 OXIDANT     O2                           3.5000000        54.358    300.000

 O/F=    1.28435  %FUEL= 43.776084  R,EQ.RATIO= 2.900000  PHI,EQ.RATIO= 2.900000

 UNBURNED GAS

 P1, BAR           1.0000
 T1, K             300.00
 H1, KJ/KG       -1218.38
 M1, (1/n)         31.124
 GAMMA1            1.2627
 SON VEL1,M/SEC     318.1

 BURNED GAS

 P, BAR            33.525
 T, K             2506.20
 RHO, KG/CU M    2.2065 0
 H, KJ/KG          821.93
 U, KJ/KG         -697.43
 G, KJ/KG        -37485.4
 S, KJ/(KG)(K)    15.2850

 M, (1/n)          13.715
 (dLV/dLP)t      -1.00085
 (dLV/dLT)p        1.0185
 Cp, KJ/(KG)(K)    3.0107
 GAMMAs            1.2627
 SON VEL,M/SEC     1385.1

 DETONATION PARAMETERS

 P/P1              33.525
 T/T1               8.354
 M/M1              0.4406
 RHO/RHO1          1.7683
 DET MACH NUMBER   7.6994
 DET VEL,M/SEC     2449.3

 MOLE FRACTIONS

 *C              1.205-11
 *CH             6.010-11
 CH2             3.9807-9
 CH3             3.4422-7
 CH2OH           1.2275-9
 CH3O            2.006-10
 CH4             3.1555-6
 CH3OH           2.0175-9
 *CO             3.9048-1
 *CO2            8.8444-3
 COOH            1.4258-7
 *C2             7.370-15
 C2H             1.320-11
 C2H2,acetylene  2.9075-8
 C2H2,vinylidene 2.315-11
 CH2CO,ketene    1.8306-8
 O(CH)2O         2.799-12
 HO(CO)2OH       1.206-15
 C2H3,vinyl      1.897-11
 CH3CO,acetyl    2.336-11
 C2H4            3.691-10
 C2H4O,ethylen-o 3.268-15
 CH3CHO,ethanal  1.029-11
 CH3COOH         2.517-13
 OHCH2COOH       4.842-16
 C2H5            4.115-13
 C2H6            6.140-13
 C2H5OH          2.073-15
 C2O             2.409-10
 *C3             1.816-16
 C3H3,1-propynl  1.012-16
 C3H3,2-propynl  1.422-13
 C3H4,allene     1.809-14
 C3H4,propyne    4.086-14
 C3H4,cyclo-     2.210-16
 C3H5,allyl      5.135-16
 C3H6,propylene  5.423-16
 C3O2            2.477-11
 C4H2,butadiyne  6.626-16
 *H              3.2344-3
 HCO             5.9210-6
 HCCO            2.728-10
 HO2             1.808-10
 *H2             5.2365-1
 HCHO,formaldehy 2.7905-6
 HCOOH           3.5997-7
 H2O             7.3675-2
 H2O2            4.568-10
 *O              3.8341-7
 *OH             1.0457-4
 *O2             2.2109-8

  * THERMODYNAMIC PROPERTIES FITTED TO 20000.K


                     DETONATION PROPERTIES OF AN IDEAL REACTING GAS
 CASE =                

             REACTANT                       MOLES         ENERGY      TEMP
                                                         KJ/KG-MOL      K
 FUEL        C2H6                         1.0000000    -83754.210    300.000
 OXIDANT     O2                           3.5000000        54.358    300.000

 O/F=    1.24154  %FUEL= 44.612175  R,EQ.RATIO= 3.000000  PHI,EQ.RATIO= 3.000000

 UNBURNED GAS

 P1, BAR           1.0000
 T1, K             300.00
 H1, KJ/KG       -1241.69
 M1, (1/n)         31.108
 GAMMA1            1.2611
 SON VEL1,M/SEC     318.0

 BURNED GAS

 P, BAR            32.299
 T, K             2382.33
 RHO, KG/CU M    2.1960 0
 H, KJ/KG          725.77
 U, KJ/KG         -745.03
 G, KJ/KG        -35803.7
 S, KJ/(KG)(K)    15.3335

 M, (1/n)          13.467
 (dLV/dLP)t      -1.00052
 (dLV/dLT)p        1.0113
 Cp, KJ/(KG)(K)    2.9321
 GAMMAs            1.2736
 SON VEL,M/SEC     1368.7

 DETONATION PARAMETERS

 P/P1              32.299
 T/T1               7.941
 M/M1              0.4329
 RHO/RHO1          1.7608
 DET MACH NUMBER   7.5788
 DET VEL,M/SEC     2410.0

 MOLE FRACTIONS

 *C              3.599-12
 *CH             2.436-11
 CH2             2.7301-9
 CH3             4.3435-7
 CH2OH           9.748-10
 CH3O            1.426-10
 CH4             6.7956-6
 CH3OH           2.5353-9
 *CO             3.9225-1
 *CO2            7.3584-3
 COOH            7.5749-8
 *C2             2.904-15
 C2H             9.921-12
 C2H2,acetylene  5.0780-8
 C2H2,vinylidene 2.605-11
 CH2CO,ketene    2.6815-8
 O(CH)2O         2.509-12
 HO(CO)2OH       6.688-16
 C2H3,vinyl      2.831-11
 CH3CO,acetyl    3.066-11
 C2H4            1.0131-9
 C2H4O,ethylen-o 4.779-15
 CH3CHO,ethanal  2.021-11
 CH3COOH         3.854-13
 OHCH2COOH       4.313-16
 C2H5            9.586-13
 C2H6            2.358-12
 C2H5OH          4.784-15
 C2O             1.503-10
 *C3             1.253-16
 C3H3,1-propynl  1.798-16
 C3H3,2-propynl  3.313-13
 C3H4,allene     5.979-14
 C3H4,propyne    1.375-13
 C3H4,cyclo-     5.902-16
 C3H5,allyl      1.789-15
 C3H6,propylene  2.750-15
 C3O2            2.855-11
 C4H2,butadiyne  1.953-15
 *H              1.8914-3
 HCO             4.0549-6
 HCCO            2.272-10
 HO2             3.173-11
 *H2             5.3924-1
 HCHO,formaldehy 2.7823-6
 HCOOH           2.8177-7
 H2O             5.9211-2
 H2O2            1.157-10
 *O              8.7482-8
 *OH             4.1312-5
 *O2             3.9792-9

  * THERMODYNAMIC PROPERTIES FITTED TO 20000.K


                     DETONATION PROPERTIES OF AN IDEAL REACTING GAS
 CASE =                

             REACTANT                       MOLES         ENERGY      TEMP
                                                         KJ/KG-MOL      K
 FUEL        C2H6                         1.0000000    -83754.210    300.000
 OXIDANT     O2                           3.5000000        54.358    300.000

 O/F=    1.20149  %FUEL= 45.423763  R,EQ.RATIO= 3.100000  PHI,EQ.RATIO= 3.100000

 UNBURNED GAS

 P1, BAR           1.0000
 T1, K             300.00
 H1, KJ/KG       -1264.30
 M1, (1/n)         31.092
 GAMMA1            1.2595
 SON VEL1,M/SEC     317.9

 BURNED GAS

 P, BAR            31.030
 T, K             2258.94
 RHO, KG/CU M    2.1862 0
 H, KJ/KG          627.06
 U, KJ/KG         -792.29
 G, KJ/KG        -34096.0
 S, KJ/(KG)(K)    15.3714

 M, (1/n)          13.233
 (dLV/dLP)t      -1.00033
 (dLV/dLT)p        1.0068
 Cp, KJ/(KG)(K)    2.8773
 GAMMAs            1.2837
 SON VEL,M/SEC     1349.8

 DETONATION PARAMETERS

 P/P1              31.030
 T/T1               7.530
 M/M1              0.4256
 RHO/RHO1          1.7539
 DET MACH NUMBER   7.4476
 DET VEL,M/SEC     2367.4

 MOLE FRACTIONS

 *C              9.586-13
 *CH             9.071-12
 CH2             1.8118-9
 CH3             5.6443-7
 CH2OH           7.500-10
 CH3O            9.728-11
 CH4             1.5976-5
 CH3OH           3.2374-9
 *CO             3.9384-1
 *CO2            5.9382-3
 COOH            3.7142-8
 *C2             1.064-15
 C2H             7.414-12
 C2H2,acetylene  9.6174-8
 C2H2,vinylidene 3.029-11
 CH2CO,ketene    4.1301-8
 O(CH)2O         2.220-12
 HO(CO)2OH       3.409-16
 C2H3,vinyl      4.491-11
 CH3CO,acetyl    4.179-11
 C2H4            3.1492-9
 C2H4O,ethylen-o 7.333-15
 CH3CHO,ethanal  4.287-11
 CH3COOH         6.151-13
 OHCH2COOH       3.745-16
 C2H5            2.480-12
 C2H6            1.059-11
 C2H5OH          1.210-14
 CH3OCH3         1.305-16
 C2O             9.060-11
 C3H3,1-propynl  3.507-16
 C3H3,2-propynl  8.729-13
 C3H4,allene     2.315-13
 C3H4,propyne    5.434-13
 C3H4,cyclo-     1.806-15
 C3H5,allyl      7.335-15
 C3H6,propylene  1.704-14
 C3O2            3.400-11
 C4H2,butadiyne  6.784-15
 *H              1.0426-3
 HCO             2.6604-6
 HCCO            1.877-10
 HO2             4.514-12
 *H2             5.5349-1
 HCHO,formaldehy 2.7612-6
 HCOOH           2.1189-7
 H2O             4.5651-2
 H2O2            2.465-11
 *O              1.6875-8
 *OH             1.4566-5
 *O2             5.832-10

  * THERMODYNAMIC PROPERTIES FITTED TO 20000.K


                     DETONATION PROPERTIES OF AN IDEAL REACTING GAS
 CASE =                

             REACTANT                       MOLES         ENERGY      TEMP
                                                         KJ/KG-MOL      K
 FUEL        C2H6                         1.0000000    -83754.210    300.000
 OXIDANT     O2                           3.5000000        54.358    300.000

 O/F=    1.16394  %FUEL= 46.211911  R,EQ.RATIO= 3.200000  PHI,EQ.RATIO= 3.200000

 UNBURNED GAS

 P1, BAR           1.0000
 T1, K             300.00
 H1, KJ/KG       -1286.27
 M1, (1/n)         31.077
 GAMMA1            1.2581
 SON VEL1,M/SEC     317.8

 BURNED GAS

 P, BAR            29.730
 T, K             2136.97
 RHO, KG/CU M    2.1771 0
 H, KJ/KG          526.55
 U, KJ/KG         -839.04
 G, KJ/KG        -32379.2
 S, KJ/(KG)(K)    15.3983

 M, (1/n)          13.011
 (dLV/dLP)t      -1.00031
 (dLV/dLT)p        1.0045
 Cp, KJ/(KG)(K)    2.8424
 GAMMAs            1.2929
 SON VEL,M/SEC     1328.8

 DETONATION PARAMETERS

 P/P1              29.730
 T/T1               7.123
 M/M1              0.4187
 RHO/RHO1          1.7474
 DET MACH NUMBER   7.3069
 DET VEL,M/SEC     2321.9

 MOLE FRACTIONS

 *C              2.306-13
 *CH             3.152-12
 CH2             1.1868-9
 CH3             7.7447-7
 CH2OH           5.588-10
 CH3O            6.369-11
 CH4             4.2242-5
 CH3OH           4.2165-9
 *CO             3.9533-1
 *CO2            4.5441-3
 COOH            1.6382-8
 *C2             3.760-16
 C2H             5.752-12
 C2H2,acetylene  2.0763-7
 C2H2,vinylidene 3.810-11
 CH2CO,ketene    6.8703-8
 O(CH)2O         1.944-12
 HO(CO)2OH       1.526-16
 C2H3,vinyl      7.957-11
 CH3CO,acetyl    6.076-11
 C2H4            1.1704-8
 C2H4O,ethylen-o 1.214-14
 CH3CHO,ethanal  1.013-10
 CH3COOH         1.030-12
 OHCH2COOH       3.111-16
 C2H5            7.519-12
 C2H6            5.891-11
 C2H5OH          3.462-14
 CH3OCH3         3.216-16
 C2O             5.375-11
 C3H3,1-propynl  8.082-16
 C3H3,2-propynl  2.803-12
 C3H4,allene     1.136-12
 C3H4,propyne    2.727-12
 C3H4,cyclo-     6.840-15
 C3H5,allyl      3.834-14
 C3H6,propylene  1.401-13
 C3H6,cyclo-     5.756-16
 C3H6O,acetone   4.235-16
 C3H6O,propanal  3.240-16
 C3H8            2.062-16
 C3O2            4.289-11
 C4H2,butadiyne  3.067-14
 *H              5.3967-4
 HCO             1.6685-6
 HCCO            1.574-10
 HO2             4.917-13
 *H2             5.6654-1
 HCHO,formaldehy 2.7307-6
 HCOOH           1.4976-7
 H2O             3.2988-2
 H2O2            4.180-12
 *O              2.6620-9
 *OH             4.4526-6
 *O2             6.576-11

  * THERMODYNAMIC PROPERTIES FITTED TO 20000.K


                     DETONATION PROPERTIES OF AN IDEAL REACTING GAS
 CASE =                

             REACTANT                       MOLES         ENERGY      TEMP
                                                         KJ/KG-MOL      K
 FUEL        C2H6                         1.0000000    -83754.210    300.000
 OXIDANT     O2                           3.5000000        54.358    300.000

 O/F=    1.12867  %FUEL= 46.977618  R,EQ.RATIO= 3.300000  PHI,EQ.RATIO= 3.300000

 UNBURNED GAS

 P1, BAR           1.0000
 T1, K             300.00
 H1, KJ/KG       -1307.61
 M1, (1/n)         31.062
 GAMMA1            1.2566
 SON VEL1,M/SEC     317.7

 BURNED GAS

 P, BAR            28.413
 T, K             2017.41
 RHO, KG/CU M    2.1687 0
 H, KJ/KG          425.04
 U, KJ/KG         -885.08
 G, KJ/KG        -30670.6
 S, KJ/(KG)(K)    15.4137

 M, (1/n)          12.803
 (dLV/dLP)t      -1.00060
 (dLV/dLT)p        1.0053
 Cp, KJ/(KG)(K)    2.8286
 GAMMAs            1.3011
 SON VEL,M/SEC     1305.6

 DETONATION PARAMETERS

 P/P1              28.413
 T/T1               6.725
 M/M1              0.4122
 RHO/RHO1          1.7415
 DET MACH NUMBER   7.1577
 DET VEL,M/SEC     2273.7

 MOLE FRACTIONS

 *C              5.226-14
 *CH             1.068-12
 CH2             8.047-10
 CH3             1.1814-6
 CH2OH           4.030-10
 CH3O            3.998-11
 CH4             1.3281-4
 CH3OH           5.6183-9
 *CO             3.9678-1
 *CO2            3.1375-3
 COOH            6.1691-9
 *C2             1.408-16
 C2H             5.108-12
 C2H2,acetylene  5.6656-7
 C2H2,vinylidene 5.734-11
 CH2CO,ketene    1.3017-7
 O(CH)2O         1.685-12
 C2H3,vinyl      1.744-10
 CH3CO,acetyl    9.935-11
 C2H4            5.7863-8
 C2H4O,ethylen-o 2.289-14
 CH3CHO,ethanal  2.818-10
 CH3COOH         1.822-12
 OHCH2COOH       2.361-16
 C2H5            2.969-11
 C2H6            4.530-10
 C2H5OH          1.187-13
 CH3OCH3         9.364-16
 C2O             3.292-11
 C3H3,1-propynl  2.565-15
 C3H3,2-propynl  1.281-11
 C3H4,allene     8.274-12
 C3H4,propyne    2.034-11
 C3H4,cyclo-     3.749-14
 C3H5,allyl      2.993-13
 C3H6,propylene  1.795-12
 C3H6,cyclo-     6.528-15
 C3H6O,acetone   3.269-15
 C3H6O,propanal  2.203-15
 C3H7,n-propyl   2.560-16
 C3H7,i-propyl   2.068-16
 C3H8            3.927-15
 C3O2            6.039-11
 C4H2,butadiyne  2.218-13
 C4H6,butadiene  2.033-15
 C4H6,1butyne    1.921-16
 C4H6,2butyne    1.472-16
 *H              2.6146-4
 HCO             9.9833-7
 HCCO            1.407-10
 HO2             3.678-14
 *H2             5.7844-1
 HCHO,formaldehy 2.6935-6
 HCOOH           9.4721-8
 H2O             2.1242-2
 H2O2            5.078-13
 *O              3.239-10
 *OH             1.1169-6
 *O2             5.115-12

  * THERMODYNAMIC PROPERTIES FITTED TO 20000.K


                     DETONATION PROPERTIES OF AN IDEAL REACTING GAS
 CASE =                

             REACTANT                       MOLES         ENERGY      TEMP
                                                         KJ/KG-MOL      K
 FUEL        C2H6                         1.0000000    -83754.210    300.000
 OXIDANT     O2                           3.5000000        54.358    300.000

 O/F=    1.09548  %FUEL= 47.721832  R,EQ.RATIO= 3.400000  PHI,EQ.RATIO= 3.400000

 UNBURNED GAS

 P1, BAR           1.0000
 T1, K             300.00
 H1, KJ/KG       -1328.35
 M1, (1/n)         31.048
 GAMMA1            1.2553
 SON VEL1,M/SEC     317.6

 BURNED GAS

 P, BAR            27.114
 T, K             1903.02
 RHO, KG/CU M    2.1618 0
 H, KJ/KG          324.63
 U, KJ/KG         -929.61
 G, KJ/KG        -29013.0
 S, KJ/(KG)(K)    15.4164

 M, (1/n)          12.615
 (dLV/dLP)t      -1.00219
 (dLV/dLT)p        1.0161
 Cp, KJ/(KG)(K)    2.8690
 GAMMAs            1.3072
 SON VEL,M/SEC     1280.4

 DETONATION PARAMETERS

 P/P1              27.114
 T/T1               6.343
 M/M1              0.4063
 RHO/RHO1          1.7368
 DET MACH NUMBER   7.0028
 DET VEL,M/SEC     2223.8

 MOLE FRACTIONS

 *C              1.314-14
 *CH             4.131-13
 CH2             6.547-10
 CH3             2.2957-6
 CH2OH           2.829-10
 CH3O            2.426-11
 CH4             5.6315-4
 CH3OH           7.6328-9
 *CO             3.9815-1
 *CO2            1.7059-3
 COOH            1.7467-9
 C2H             6.913-12
 C2H2,acetylene  2.5596-6
 C2H2,vinylidene 1.364-10
 CH2CO,ketene    3.2110-7
 O(CH)2O         1.453-12
 C2H3,vinyl      6.213-10
 CH3CO,acetyl    2.094-10
 C2H4            4.9439-7
 C2H4O,ethylen-o 5.621-14
 CH3CHO,ethanal  1.0498-9
 CH3COOH         3.382-12
 OHCH2COOH       1.429-16
 C2H5            1.991-10
 C2H6            6.2199-9
 C2H5OH          5.534-13
 CH3OCH3         3.661-15
 C2O             2.417-11
 C3H3,1-propynl  1.690-14
 C3H3,2-propynl  1.249-10
 C3H4,allene     1.332-10
 C3H4,propyne    3.360-10
 C3H4,cyclo-     4.447-13
 C3H5,allyl      5.197-12
 C3H6,propylene  5.302-11
 C3H6,cyclo-     1.693-13
 C3H6O,acetone   4.527-14
 C3H6O,propanal  2.662-14
 C3H7,n-propyl   5.602-15
 C3H7,i-propyl   4.735-15
 C3H8            1.774-13
 C3O2            1.090-10
 C4H2,butadiyne  4.407-12
 C4H6,butadiene  1.296-13
 C4H6,1butyne    1.042-14
 C4H6,2butyne    8.711-15
 C4H6,cyclo-     2.569-16
 C4H8,1-butene   1.400-15
 C4H8,cis2-buten 5.738-16
 C4H8,tr2-butene 6.446-16
 C4H8,isobutene  7.156-16
 C5H6,1,3cyclo-  3.125-16
 C6H6            1.772-16
 *H              1.1982-4
 HCO             5.7430-7
 HCCO            1.548-10
 HO2             1.477-15
 *H2             5.8881-1
 HCHO,formaldehy 2.6517-6
 HCOOH           4.6889-8
 H2O             1.0643-2
 H2O2            3.430-14
 *O              2.721-11
 *OH             2.0350-7
 *O2             2.145-13

  * THERMODYNAMIC PROPERTIES FITTED TO 20000.K


                     DETONATION PROPERTIES OF AN IDEAL REACTING GAS
 CASE =                

             REACTANT                       MOLES         ENERGY      TEMP
                                                         KJ/KG-MOL      K
 FUEL        C2H6                         1.0000000    -83754.210    300.000
 OXIDANT     O2                           3.5000000        54.358    300.000

 O/F=    1.06418  %FUEL= 48.445443  R,EQ.RATIO= 3.500000  PHI,EQ.RATIO= 3.500000

 UNBURNED GAS

 P1, BAR           1.0000
 T1, K             300.00
 H1, KJ/KG       -1348.52
 M1, (1/n)         31.034
 GAMMA1            1.2539
 SON VEL1,M/SEC     317.5

 BURNED GAS

 P, BAR            26.057
 T, K             1813.46
 RHO, KG/CU M    2.1609 0
 H, KJ/KG          238.24
 U, KJ/KG         -967.61
 G, KJ/KG        -27699.1
 S, KJ/(KG)(K)    15.4055

 M, (1/n)          12.504
 (dLV/dLP)t      -1.00717
 (dLV/dLT)p        1.0540
 Cp, KJ/(KG)(K)    3.0660
 GAMMAs            1.3051
 SON VEL,M/SEC     1254.5

 DETONATION PARAMETERS

 P/P1              26.057
 T/T1               6.045
 M/M1              0.4029
 RHO/RHO1          1.7368
 DET MACH NUMBER   6.8632
 DET VEL,M/SEC     2178.8

 MOLE FRACTIONS

 *C              7.238-15
 *CH             3.303-13
 CH2             9.972-10
 CH3             7.4467-6
 CH2OH           2.059-10
 CH3O            1.559-11
 CH4             3.6054-3
 CH3OH           9.8613-9
 *CO             3.9867-1
 *CO2            5.4668-4
 COOH            3.162-10
 *C2             1.468-16
 C2H             3.025-11
 C2H2,acetylene  3.1917-5
 C2H2,vinylidene 9.707-10
 CH2CO,ketene    1.2877-6
 O(CH)2O         1.272-12
 C2H3,vinyl      6.2784-9
 CH3CO,acetyl    7.310-10
 C2H4            1.0686-5
 C2H4O,ethylen-o 2.239-13
 CH3CHO,ethanal  6.0035-9
 CH3COOH         5.756-12
 C2H5            3.4754-9
 C2H6            2.0235-7
 C2H5OH          3.830-12
 CH3OCH3         2.175-14
 C2O             3.391-11
 *C3             9.463-16
 C3H3,1-propynl  5.360-13
 C3H3,2-propynl  5.5792-9
 C3H4,allene     9.1901-9
 C3H4,propyne    2.3702-8
 C3H4,cyclo-     2.352-11
 C3H5,allyl      3.824-10
 C3H6,propylene  6.1773-9
 C3H6,cyclo-     1.764-11
 C3H6O,propylox  1.033-16
 C3H6O,acetone   1.486-12
 C3H6O,propanal  7.768-13
 C3H7,n-propyl   5.014-13
 C3H7,i-propyl   4.406-13
 C3H8            2.982-11
 C3H8O,1propanol 5.024-16
 C3H8O,2propanol 5.069-16
 C3O2            3.355-10
 C4H2,butadiyne  6.740-10
 C4H4,1,3-cyclo- 1.269-14
 C4H6,butadiene  5.448-11
 C4H6,1butyne    3.790-12
 C4H6,2butyne    3.417-12
 C4H6,cyclo-     9.617-14
 C4H8,1-butene   8.438-13
 C4H8,cis2-buten 3.583-13
 C4H8,tr2-butene 4.023-13
 C4H8,isobutene  4.545-13
 C4H8,cyclo-     3.595-16
 C4H9,n-butyl    1.684-16
 C4H9,s-butyl    1.114-16
 C4H10,n-butane  4.518-15
 C4H10,isobutane 1.517-15
 C5H6,1,3cyclo-  6.202-13
 C5H8,cyclo-     2.036-15
 C6H2            1.507-14
 C6H5,phenyl     1.473-15
 C6H6            2.072-12
 C6H5OH,phenol   2.303-16
 C7H7,benzyl     1.393-16
 C7H8            1.724-15
 *H              6.0561-5
 HCO             3.5333-7
 HCCO            3.080-10
 *H2             5.9391-1
 HCHO,formaldehy 2.6001-6
 HCOOH           1.3799-8
 H2O             3.1531-3
 H2O2            9.678-16
 *O              1.713-12
 *OH             2.5057-8
 *O2             4.015-15

  * THERMODYNAMIC PROPERTIES FITTED TO 20000.K


                     DETONATION PROPERTIES OF AN IDEAL REACTING GAS
 CASE =                

             REACTANT                       MOLES         ENERGY      TEMP
                                                         KJ/KG-MOL      K
 FUEL        C2H6                         1.0000000    -83754.210    300.000
 OXIDANT     O2                           3.5000000        54.358    300.000

 O/F=    1.03462  %FUEL= 49.149296  R,EQ.RATIO= 3.600000  PHI,EQ.RATIO= 3.600000

 UNBURNED GAS

 P1, BAR           1.0000
 T1, K             300.00
 H1, KJ/KG       -1368.14
 M1, (1/n)         31.020
 GAMMA1            1.2527
 SON VEL1,M/SEC     317.4

 BURNED GAS

 P, BAR            25.398
 T, K             1766.09
 RHO, KG/CU M    2.1622 0
 H, KJ/KG          176.99
 U, KJ/KG         -997.66
 G, KJ/KG        -26995.5
 S, KJ/(KG)(K)    15.3857

 M, (1/n)          12.501
 MW, MOL WT        12.431
 (dLV/dLP)t      -1.00991
 (dLV/dLT)p        1.0679
 Cp, KJ/(KG)(K)    3.1468
 GAMMAs            1.3006
 SON VEL,M/SEC     1236.0

 DETONATION PARAMETERS

 P/P1              25.398
 T/T1               5.887
 M/M1              0.4030
 RHO/RHO1          1.7386
 DET MACH NUMBER   6.7710
 DET VEL,M/SEC     2149.0

 MOLE FRACTIONS

 *C              3.940-15
 *CH             2.217-13
 CH2             9.631-10
 CH3             1.1034-5
 CH2OH           1.676-10
 CH3O            1.182-11
 CH4             7.8558-3
 CH3OH           1.1099-8
 *CO             3.9237-1
 *CO2            3.6192-4
 COOH            1.507-10
 *C2             1.258-16
 C2H             4.101-11
 C2H2,acetylene  7.8371-5
 C2H2,vinylidene 1.7304-9
 CH2CO,ketene    2.1315-6
 O(CH)2O         1.139-12
 C2H3,vinyl      1.3632-8
 CH3CO,acetyl    1.1154-9
 C2H4            3.5697-5
 C2H4O,ethylen-o 3.672-13
 CH3CHO,ethanal  1.2098-8
 CH3COOH         7.490-12
 C2H5            1.0248-8
 C2H6            8.4868-7
 C2H5OH          8.558-12
 CH3OCH3         4.454-14
 C2O             3.102-11
 *C3             1.559-15
 C3H3,1-propynl  1.712-12
 C3H3,2-propynl  2.1668-8
 C3H4,allene     4.5617-8
 C3H4,propyne    1.1914-7
 C3H4,cyclo-     1.003-10
 C3H5,allyl      1.9640-9
 C3H6,propylene  4.1105-8
 C3H6,cyclo-     1.102-10
 C3H6O,propylox  3.417-16
 C3H6O,acetone   6.185-12
 C3H6O,propanal  3.023-12
 C3H7,n-propyl   2.863-12
 C3H7,i-propyl   2.572-12
 C3H8            2.432-10
 C3H8O,1propanol 2.192-15
 C3H8O,2propanol 2.261-15
 C3O2            4.741-10
 C4H2,butadiyne  4.0605-9
 C4H4,1,3-cyclo- 8.540-14
 C4H6,butadiene  5.784-10
 C4H6,1butyne    3.701-11
 C4H6,2butyne    3.484-11
 C4H6,cyclo-     9.550-13
 C4H8,1-butene   1.093-11
 C4H8,cis2-buten 4.734-12
 C4H8,tr2-butene 5.315-12
 C4H8,isobutene  6.063-12
 C4H8,cyclo-     4.424-15
 C4H9,n-butyl    1.910-15
 C4H9,i-butyl    1.110-15
 C4H9,s-butyl    1.267-15
 C4H9,t-butyl    3.336-16
 C4H10,n-butane  7.149-14
 C4H10,isobutane 2.436-14
 C5H6,1,3cyclo-  1.222-11
 C5H8,cyclo-     4.732-14
 C5H10,1-pentene 2.420-15
 C6H2            2.232-13
 C6H5,phenyl     3.919-14
 C6H5O,phenoxy   1.051-16
 C6H6            8.601-11
 C6H5OH,phenol   5.323-15
 C7H7,benzyl     8.612-15
 C7H8            1.429-13
 C8H8,styrene    3.478-15
 C10H8,naphthale 1.552-16
 *H              4.0837-5
 HCO             2.6271-7
 HCCO            3.429-10
 *H2             5.9167-1
 HCHO,formaldehy 2.5148-6
 HCOOH           8.6579-9
 H2O             2.0104-3
 H2O2            2.080-16
 *O              4.549-13
 *OH             9.7164-9
 *O2             6.870-16
 C(gr)           5.5615-3

  * THERMODYNAMIC PROPERTIES FITTED TO 20000.K



