
 *******************************************************************************

         NASA-GLENN CHEMICAL EQUILIBRIUM PROGRAM CEA2, MAY 21, 2004
                   BY  BONNIE MCBRIDE AND SANFORD GORDON
      REFS: NASA RP-1311, PART I, 1994 AND NASA RP-1311, PART II, 1996

 *******************************************************************************



 problem    phi,eq.ratio=0.5,0.6,0.7,0.8,0.9,1,1.1,1.2,1.3,1.4,1.5,1.6,1.7,1.8,1.
 9,2,
       det   t,k=300,  p,bar=1,
 react
   fuel=C6H6 moles=1 t,k=300
   oxid=O2 moles=7.5 t,k=300
 output
      trace=1e-16 siunits short
 end


                     DETONATION PROPERTIES OF AN IDEAL REACTING GAS
 CASE =                

             REACTANT                       MOLES         ENERGY      TEMP
                                                         KJ/KG-MOL      K
 FUEL        C6H6                         1.0000000     83032.119    300.000
 OXIDANT     O2                           7.5000000        54.358    300.000

 O/F=    6.14480  %FUEL= 13.996184  R,EQ.RATIO= 0.500000  PHI,EQ.RATIO= 0.500000

 UNBURNED GAS

 P1, BAR           1.0000
 T1, K             300.00
 H1, KJ/KG         150.24
 M1, (1/n)         34.881
 GAMMA1            1.3408
 SON VEL1,M/SEC     309.7

 BURNED GAS

 P, BAR            26.509
 T, K             3607.16
 RHO, KG/CU M    2.5853 0
 H, KJ/KG         1555.75
 U, KJ/KG          530.34
 G, KJ/KG        -32653.0
 S, KJ/(KG)(K)     9.4836

 M, (1/n)          29.249
 (dLV/dLP)t      -1.05258
 (dLV/dLT)p        1.9240
 Cp, KJ/(KG)(K)    6.1729
 GAMMAs            1.1337
 SON VEL,M/SEC     1078.2

 DETONATION PARAMETERS

 P/P1              26.509
 T/T1              12.024
 M/M1              0.8385
 RHO/RHO1          1.8487
 DET MACH NUMBER   6.4371
 DET VEL,M/SEC     1993.3

 MOLE FRACTIONS

 *C              2.180-10
 *CH             1.904-11
 CH2             5.856-12
 CH3             1.502-12
 CH2OH           1.762-12
 CH3O            5.882-13
 CH4             7.087-14
 CH3OH           2.150-14
 *CO             1.2213-1
 *CO2            1.9231-1
 COOH            4.4855-6
 *C2             2.471-16
 C2H             1.075-15
 C2H2,acetylene  1.795-15
 CH2CO,ketene    6.896-14
 O(CH)2O         4.234-15
 HO(CO)2OH       1.583-14
 C2O             1.240-11
 C3O2            7.545-15
 *H              1.2595-2
 HCO             1.8459-6
 HCCO            2.661-13
 HO2             3.9883-4
 *H2             7.5045-3
 HCHO,formaldehy 1.0297-8
 HCOOH           1.2558-7
 H2O             9.9647-2
 H2O2            1.2159-5
 *O              7.8657-2
 *OH             8.7122-2
 *O2             3.9961-1
 O3              5.8834-6

  * THERMODYNAMIC PROPERTIES FITTED TO 20000.K


                     DETONATION PROPERTIES OF AN IDEAL REACTING GAS
 CASE =                

             REACTANT                       MOLES         ENERGY      TEMP
                                                         KJ/KG-MOL      K
 FUEL        C6H6                         1.0000000     83032.119    300.000
 OXIDANT     O2                           7.5000000        54.358    300.000

 O/F=    5.12067  %FUEL= 16.338079  R,EQ.RATIO= 0.600000  PHI,EQ.RATIO= 0.600000

 UNBURNED GAS

 P1, BAR           1.0000
 T1, K             300.00
 H1, KJ/KG         175.09
 M1, (1/n)         35.415
 GAMMA1            1.3325
 SON VEL1,M/SEC     306.3

 BURNED GAS

 P, BAR            28.667
 T, K             3715.31
 RHO, KG/CU M    2.6278 0
 H, KJ/KG         1675.84
 U, KJ/KG          584.95
 G, KJ/KG        -34570.6
 S, KJ/(KG)(K)     9.7560

 M, (1/n)          28.317
 (dLV/dLP)t      -1.06283
 (dLV/dLT)p        2.0674
 Cp, KJ/(KG)(K)    6.9252
 GAMMAs            1.1343
 SON VEL,M/SEC     1112.4

 DETONATION PARAMETERS

 P/P1              28.667
 T/T1              12.384
 M/M1              0.7996
 RHO/RHO1          1.8509
 DET MACH NUMBER   6.7206
 DET VEL,M/SEC     2058.9

 MOLE FRACTIONS

 *C              7.235-10
 *CH             7.106-11
 CH2             2.245-11
 CH3             5.767-12
 CH2OH           5.354-12
 CH3O            1.884-12
 CH4             2.856-13
 CH3OH           6.973-14
 *CO             1.6681-1
 *CO2            1.8855-1
 COOH            6.6216-6
 *C2             1.624-15
 C2H             6.982-15
 C2H2,acetylene  1.067-14
 C2H2,vinylidene 1.251-16
 CH2CO,ketene    2.903-13
 O(CH)2O         1.434-14
 HO(CO)2OH       2.867-14
 CH3CO,acetyl    1.017-16
 C2O             4.539-11
 C3O2            3.201-14
 *H              1.8464-2
 HCO             3.7074-6
 HCCO            1.100-12
 HO2             4.1039-4
 *H2             1.1138-2
 HCHO,formaldehy 2.2708-8
 HCOOH           2.0263-7
 H2O             1.0797-1
 H2O2            1.3721-5
 *O              8.7058-2
 *OH             9.8235-2
 *O2             3.2133-1
 O3              5.3204-6

  * THERMODYNAMIC PROPERTIES FITTED TO 20000.K


                     DETONATION PROPERTIES OF AN IDEAL REACTING GAS
 CASE =                

             REACTANT                       MOLES         ENERGY      TEMP
                                                         KJ/KG-MOL      K
 FUEL        C6H6                         1.0000000     83032.119    300.000
 OXIDANT     O2                           7.5000000        54.358    300.000

 O/F=    4.38915  %FUEL= 18.555815  R,EQ.RATIO= 0.700000  PHI,EQ.RATIO= 0.700000

 UNBURNED GAS

 P1, BAR           1.0000
 T1, K             300.00
 H1, KJ/KG         198.63
 M1, (1/n)         35.935
 GAMMA1            1.3247
 SON VEL1,M/SEC     303.2

 BURNED GAS

 P, BAR            30.703
 T, K             3800.85
 RHO, KG/CU M    2.6679 0
 H, KJ/KG         1786.16
 U, KJ/KG          635.36
 G, KJ/KG        -36233.0
 S, KJ/(KG)(K)    10.0028

 M, (1/n)          27.461
 (dLV/dLP)t      -1.07045
 (dLV/dLT)p        2.1650
 Cp, KJ/(KG)(K)    7.4743
 GAMMAs            1.1356
 SON VEL,M/SEC     1143.2

 DETONATION PARAMETERS

 P/P1              30.703
 T/T1              12.669
 M/M1              0.7642
 RHO/RHO1          1.8519
 DET MACH NUMBER   6.9817
 DET VEL,M/SEC     2117.1

 MOLE FRACTIONS

 *C              1.8239-9
 *CH             1.993-10
 CH2             6.544-11
 CH3             1.714-11
 CH2OH           1.302-11
 CH3O            4.767-12
 CH4             8.979-13
 CH3OH           1.814-13
 *CO             2.1048-1
 *CO2            1.8091-1
 COOH            8.7974-6
 *C2             7.075-15
 C2H             3.071-14
 C2H2,acetylene  4.476-14
 C2H2,vinylidene 5.926-16
 CH2CO,ketene    9.161-13
 O(CH)2O         3.746-14
 HO(CO)2OH       4.452-14
 CH3CO,acetyl    4.045-16
 C2O             1.243-10
 C3O2            9.880-14
 *H              2.4819-2
 HCO             6.3649-6
 HCCO            3.360-12
 HO2             4.0194-4
 *H2             1.5389-2
 HCHO,formaldehy 4.2605-8
 HCOOH           2.9321-7
 H2O             1.1484-1
 H2O2            1.4668-5
 *O              9.0694-2
 *OH             1.0568-1
 *O2             2.5675-1
 O3              4.5377-6

  * THERMODYNAMIC PROPERTIES FITTED TO 20000.K


                     DETONATION PROPERTIES OF AN IDEAL REACTING GAS
 CASE =                

             REACTANT                       MOLES         ENERGY      TEMP
                                                         KJ/KG-MOL      K
 FUEL        C6H6                         1.0000000     83032.119    300.000
 OXIDANT     O2                           7.5000000        54.358    300.000

 O/F=    3.84050  %FUEL= 20.659010  R,EQ.RATIO= 0.800000  PHI,EQ.RATIO= 0.800000

 UNBURNED GAS

 P1, BAR           1.0000
 T1, K             300.00
 H1, KJ/KG         220.95
 M1, (1/n)         36.443
 GAMMA1            1.3174
 SON VEL1,M/SEC     300.3

 BURNED GAS

 P, BAR            32.648
 T, K             3870.55
 RHO, KG/CU M    2.7063 0
 H, KJ/KG         1888.73
 U, KJ/KG          682.36
 G, KJ/KG        -37698.8
 S, KJ/(KG)(K)    10.2279

 M, (1/n)          26.676
 (dLV/dLP)t      -1.07579
 (dLV/dLT)p        2.2259
 Cp, KJ/(KG)(K)    7.8567
 GAMMAs            1.1374
 SON VEL,M/SEC     1171.4

 DETONATION PARAMETERS

 P/P1              32.648
 T/T1              12.902
 M/M1              0.7320
 RHO/RHO1          1.8523
 DET MACH NUMBER   7.2255
 DET VEL,M/SEC     2169.7

 MOLE FRACTIONS

 *C              3.8539-9
 *CH             4.652-10
 CH2             1.598-10
 CH3             4.317-11
 CH2OH           2.733-11
 CH3O            1.033-11
 CH4             2.404-12
 CH3OH           4.079-13
 CH3OOH          1.708-16
 *CO             2.5243-1
 *CO2            1.7087-1
 COOH            1.0888-5
 *C2             2.369-14
 C2H             1.053-13
 C2H2,acetylene  1.502-13
 C2H2,vinylidene 2.186-15
 CH2CO,ketene    2.399-12
 O(CH)2O         8.259-14
 HO(CO)2OH       6.220-14
 CH3CO,acetyl    1.290-15
 C2O             2.824-10
 C3O2            2.484-13
 *H              3.1530-2
 HCO             9.8663-6
 HCCO            8.444-12
 HO2             3.7935-4
 *H2             2.0291-2
 HCHO,formaldehy 7.1925-8
 HCOOH           3.9412-7
 H2O             1.2038-1
 H2O2            1.5060-5
 *O              9.0645-2
 *OH             1.1002-1
 *O2             2.0342-1
 O3              3.6965-6

  * THERMODYNAMIC PROPERTIES FITTED TO 20000.K


                     DETONATION PROPERTIES OF AN IDEAL REACTING GAS
 CASE =                

             REACTANT                       MOLES         ENERGY      TEMP
                                                         KJ/KG-MOL      K
 FUEL        C6H6                         1.0000000     83032.119    300.000
 OXIDANT     O2                           7.5000000        54.358    300.000

 O/F=    3.41378  %FUEL= 22.656315  R,EQ.RATIO= 0.900000  PHI,EQ.RATIO= 0.900000

 UNBURNED GAS

 P1, BAR           1.0000
 T1, K             300.00
 H1, KJ/KG         242.15
 M1, (1/n)         36.939
 GAMMA1            1.3106
 SON VEL1,M/SEC     297.5

 BURNED GAS

 P, BAR            34.517
 T, K             3928.17
 RHO, KG/CU M    2.7432 0
 H, KJ/KG         1984.69
 U, KJ/KG          726.40
 G, KJ/KG        -39001.5
 S, KJ/(KG)(K)    10.4339

 M, (1/n)          25.956
 (dLV/dLP)t      -1.07918
 (dLV/dLT)p        2.2570
 Cp, KJ/(KG)(K)    8.1007
 GAMMAs            1.1393
 SON VEL,M/SEC     1197.3

 DETONATION PARAMETERS

 P/P1              34.517
 T/T1              13.094
 M/M1              0.7027
 RHO/RHO1          1.8523
 DET MACH NUMBER   7.4550
 DET VEL,M/SEC     2217.8

 MOLE FRACTIONS

 *C              7.2027-9
 *CH             9.553-10
 CH2             3.453-10
 CH3             9.705-11
 CH2OH           5.177-11
 CH3O            2.008-11
 CH4             5.762-12
 CH3OH           8.288-13
 CH3OOH          3.270-16
 *CO             2.9232-1
 *CO2            1.5937-1
 COOH            1.2792-5
 *C2             6.617-14
 C2H             3.040-13
 C2H2,acetylene  4.328-13
 C2H2,vinylidene 6.794-15
 CH2CO,ketene    5.528-12
 O(CH)2O         1.616-13
 HO(CO)2OH       8.033-14
 C2H3,vinyl      1.806-16
 CH3CO,acetyl    3.533-15
 C2O             5.639-10
 C3O2            5.424-13
 *H              3.8498-2
 HCO             1.4237-5
 HCCO            1.855-11
 HO2             3.4704-4
 *H2             2.5900-2
 HCHO,formaldehy 1.1277-7
 HCOOH           5.0206-7
 H2O             1.2468-1
 H2O2            1.4956-5
 *O              8.7755-2
 *OH             1.1167-1
 *O2             1.5942-1
 O3              2.8907-6

  * THERMODYNAMIC PROPERTIES FITTED TO 20000.K


                     DETONATION PROPERTIES OF AN IDEAL REACTING GAS
 CASE =                

             REACTANT                       MOLES         ENERGY      TEMP
                                                         KJ/KG-MOL      K
 FUEL        C6H6                         1.0000000     83032.119    300.000
 OXIDANT     O2                           7.5000000        54.358    300.000

 O/F=    3.07240  %FUEL= 24.555531  R,EQ.RATIO= 1.000000  PHI,EQ.RATIO= 1.000000

 UNBURNED GAS

 P1, BAR           1.0000
 T1, K             300.00
 H1, KJ/KG         262.30
 M1, (1/n)         37.424
 GAMMA1            1.3043
 SON VEL1,M/SEC     294.8

 BURNED GAS

 P, BAR            36.316
 T, K             3975.89
 RHO, KG/CU M    2.7787 0
 H, KJ/KG         2074.71
 U, KJ/KG          767.77
 G, KJ/KG        -40161.5
 S, KJ/(KG)(K)    10.6231

 M, (1/n)          25.294
 (dLV/dLP)t      -1.08088
 (dLV/dLT)p        2.2635
 Cp, KJ/(KG)(K)    8.2270
 GAMMAs            1.1413
 SON VEL,M/SEC     1221.3

 DETONATION PARAMETERS

 P/P1              36.316
 T/T1              13.253
 M/M1              0.6759
 RHO/RHO1          1.8520
 DET MACH NUMBER   7.6717
 DET VEL,M/SEC     2262.0

 MOLE FRACTIONS

 *C              1.2295-8
 *CH             1.7856-9
 CH2             6.824-10
 CH3             2.010-10
 CH2OH           9.087-11
 CH3O            3.598-11
 CH4             1.276-11
 CH3OH           1.563-12
 CH3OOH          5.717-16
 *CO             3.3001-1
 *CO2            1.4704-1
 COOH            1.4430-5
 *C2             1.620-13
 C2H             7.758-13
 C2H2,acetylene  1.119-12
 C2H2,vinylidene 1.867-14
 CH2CO,ketene    1.161-11
 O(CH)2O         2.896-13
 HO(CO)2OH       9.747-14
 C2H3,vinyl      5.463-16
 CH3CO,acetyl    8.659-15
 C2O             1.0245-9
 C3O2            1.068-12
 *H              4.5629-2
 HCO             1.9479-5
 HCCO            3.694-11
 HO2             3.0852-4
 *H2             3.2292-2
 HCHO,formaldehy 1.6746-7
 HCOOH           6.1356-7
 H2O             1.2778-1
 H2O2            1.4418-5
 *O              8.2688-2
 *OH             1.1093-1
 *O2             1.2326-1
 O3              2.1720-6

  * THERMODYNAMIC PROPERTIES FITTED TO 20000.K


                     DETONATION PROPERTIES OF AN IDEAL REACTING GAS
 CASE =                

             REACTANT                       MOLES         ENERGY      TEMP
                                                         KJ/KG-MOL      K
 FUEL        C6H6                         1.0000000     83032.119    300.000
 OXIDANT     O2                           7.5000000        54.358    300.000

 O/F=    2.79309  %FUEL= 26.363709  R,EQ.RATIO= 1.100000  PHI,EQ.RATIO= 1.100000

 UNBURNED GAS

 P1, BAR           1.0000
 T1, K             300.00
 H1, KJ/KG         281.49
 M1, (1/n)         37.897
 GAMMA1            1.2983
 SON VEL1,M/SEC     292.3

 BURNED GAS

 P, BAR            38.047
 T, K             4014.95
 RHO, KG/CU M    2.8131 0
 H, KJ/KG         2159.19
 U, KJ/KG          806.67
 G, KJ/KG        -41190.6
 S, KJ/(KG)(K)    10.7971

 M, (1/n)          24.682
 (dLV/dLP)t      -1.08107
 (dLV/dLT)p        2.2491
 Cp, KJ/(KG)(K)    8.2500
 GAMMAs            1.1435
 SON VEL,M/SEC     1243.6

 DETONATION PARAMETERS

 P/P1              38.047
 T/T1              13.383
 M/M1              0.6513
 RHO/RHO1          1.8515
 DET MACH NUMBER   7.8768
 DET VEL,M/SEC     2302.6

 MOLE FRACTIONS

 *C              1.9559-8
 *CH             3.1047-9
 CH2             1.2608-9
 CH3             3.919-10
 CH2OH           1.504-10
 CH3O            6.056-11
 CH4             2.669-11
 CH3OH           2.784-12
 CH3OOH          9.295-16
 *CO             3.6546-1
 *CO2            1.3432-1
 COOH            1.5734-5
 *C2             3.585-13
 C2H             1.805-12
 C2H2,acetylene  2.675-12
 C2H2,vinylidene 4.683-14
 CH2CO,ketene    2.278-11
 O(CH)2O         4.847-13
 HO(CO)2OH       1.122-13
 C2H3,vinyl      1.504-15
 CH3CO,acetyl    1.953-14
 C2H4            1.083-16
 CH3CHO,ethanal  1.343-16
 C2O             1.7319-9
 C3O2            1.948-12
 *H              5.2822-2
 HCO             2.5572-5
 HCCO            6.830-11
 HO2             2.6660-4
 *H2             3.9562-2
 HCHO,formaldehy 2.3857-7
 HCOOH           7.2497-7
 H2O             1.2973-1
 H2O2            1.3510-5
 *O              7.5986-2
 *OH             1.0808-1
 *O2             9.3720-2
 O3              1.5656-6

  * THERMODYNAMIC PROPERTIES FITTED TO 20000.K


                     DETONATION PROPERTIES OF AN IDEAL REACTING GAS
 CASE =                

             REACTANT                       MOLES         ENERGY      TEMP
                                                         KJ/KG-MOL      K
 FUEL        C6H6                         1.0000000     83032.119    300.000
 OXIDANT     O2                           7.5000000        54.358    300.000

 O/F=    2.56034  %FUEL= 28.087242  R,EQ.RATIO= 1.200000  PHI,EQ.RATIO= 1.200000

 UNBURNED GAS

 P1, BAR           1.0000
 T1, K             300.00
 H1, KJ/KG         299.79
 M1, (1/n)         38.359
 GAMMA1            1.2928
 SON VEL1,M/SEC     289.9

 BURNED GAS

 P, BAR            39.709
 T, K             4045.98
 RHO, KG/CU M    2.8462 0
 H, KJ/KG         2238.32
 U, KJ/KG          843.19
 G, KJ/KG        -42094.4
 S, KJ/(KG)(K)    10.9572

 M, (1/n)          24.113
 (dLV/dLP)t      -1.07986
 (dLV/dLT)p        2.2163
 Cp, KJ/(KG)(K)    8.1788
 GAMMAs            1.1458
 SON VEL,M/SEC     1264.3

 DETONATION PARAMETERS

 P/P1              39.709
 T/T1              13.487
 M/M1              0.6286
 RHO/RHO1          1.8508
 DET MACH NUMBER   8.0707
 DET VEL,M/SEC     2340.0

 MOLE FRACTIONS

 *C              2.9378-8
 *CH             5.0931-9
 CH2             2.2098-9
 CH3             7.300-10
 CH2OH           2.376-10
 CH3O            9.692-11
 CH4             5.351-11
 CH3OH           4.745-12
 CH3OOH          1.422-15
 *CO             3.9868-1
 *CO2            1.2150-1
 COOH            1.6652-5
 *C2             7.333-13
 C2H             3.910-12
 C2H2,acetylene  6.030-12
 C2H2,vinylidene 1.097-13
 CH2CO,ketene    4.241-11
 O(CH)2O         7.685-13
 HO(CO)2OH       1.234-13
 C2H3,vinyl      3.859-15
 CH3CO,acetyl    4.131-14
 C2H4            2.955-16
 CH3CHO,ethanal  3.076-16
 CH3COOH         1.544-16
 C2O             2.7657-9
 C3O2            3.347-12
 *H              5.9955-2
 HCO             3.2462-5
 HCCO            1.192-10
 HO2             2.2366-4
 *H2             4.7824-2
 HCHO,formaldehy 3.2893-7
 HCOOH           8.3239-7
 H2O             1.3050-1
 H2O2            1.2303-5
 *O              6.8112-2
 *OH             1.0333-1
 *O2             6.9826-2
 O3              1.0784-6

  * THERMODYNAMIC PROPERTIES FITTED TO 20000.K


                     DETONATION PROPERTIES OF AN IDEAL REACTING GAS
 CASE =                

             REACTANT                       MOLES         ENERGY      TEMP
                                                         KJ/KG-MOL      K
 FUEL        C6H6                         1.0000000     83032.119    300.000
 OXIDANT     O2                           7.5000000        54.358    300.000

 O/F=    2.36339  %FUEL= 29.731939  R,EQ.RATIO= 1.300000  PHI,EQ.RATIO= 1.300000

 UNBURNED GAS

 P1, BAR           1.0000
 T1, K             300.00
 H1, KJ/KG         317.24
 M1, (1/n)         38.811
 GAMMA1            1.2875
 SON VEL1,M/SEC     287.7

 BURNED GAS

 P, BAR            41.295
 T, K             4069.14
 RHO, KG/CU M    2.8783 0
 H, KJ/KG         2312.10
 U, KJ/KG          877.39
 G, KJ/KG        -42874.4
 S, KJ/(KG)(K)    11.1047

 M, (1/n)          23.582
 (dLV/dLP)t      -1.07733
 (dLV/dLT)p        2.1665
 Cp, KJ/(KG)(K)    8.0183
 GAMMAs            1.1482
 SON VEL,M/SEC     1283.5

 DETONATION PARAMETERS

 P/P1              41.295
 T/T1              13.564
 M/M1              0.6076
 RHO/RHO1          1.8499
 DET MACH NUMBER   8.2538
 DET VEL,M/SEC     2374.2

 MOLE FRACTIONS

 *C              4.2014-8
 *CH             7.9583-9
 CH2             3.7120-9
 CH3             1.3130-9
 CH2OH           3.610-10
 CH3O            1.487-10
 CH4             1.041-10
 CH3OH           7.809-12
 CH3OOH          2.060-15
 *CO             4.2969-1
 *CO2            1.0881-1
 COOH            1.7141-5
 *C2             1.406-12
 C2H             8.010-12
 C2H2,acetylene  1.302-11
 C2H2,vinylidene 2.435-13
 CH2CO,ketene    7.588-11
 O(CH)2O         1.165-12
 HO(CO)2OH       1.300-13
 C2H3,vinyl      9.386-15
 CH3CO,acetyl    8.315-14
 C2H4            7.701-16
 CH3CHO,ethanal  6.718-16
 CH3COOH         2.812-16
 C2O             4.2154-9
 *C3             2.232-16
 C3O2            5.483-12
 *H              6.6875-2
 HCO             4.0055-5
 HCCO            1.986-10
 HO2             1.8166-4
 *H2             5.7214-2
 HCHO,formaldehy 4.4166-7
 HCOOH           9.3161-7
 H2O             1.3006-1
 H2O2            1.0869-5
 *O              5.9477-2
 *OH             9.6874-2
 *O2             5.0753-2
 O3              7.0575-7

  * THERMODYNAMIC PROPERTIES FITTED TO 20000.K


                     DETONATION PROPERTIES OF AN IDEAL REACTING GAS
 CASE =                

             REACTANT                       MOLES         ENERGY      TEMP
                                                         KJ/KG-MOL      K
 FUEL        C6H6                         1.0000000     83032.119    300.000
 OXIDANT     O2                           7.5000000        54.358    300.000

 O/F=    2.19457  %FUEL= 31.303087  R,EQ.RATIO= 1.400000  PHI,EQ.RATIO= 1.400000

 UNBURNED GAS

 P1, BAR           1.0000
 T1, K             300.00
 H1, KJ/KG         333.92
 M1, (1/n)         39.253
 GAMMA1            1.2825
 SON VEL1,M/SEC     285.5

 BURNED GAS

 P, BAR            42.798
 T, K             4084.24
 RHO, KG/CU M    2.9092 0
 H, KJ/KG         2380.37
 U, KJ/KG          909.22
 G, KJ/KG        -43527.7
 S, KJ/(KG)(K)    11.2403

 M, (1/n)          23.083
 (dLV/dLP)t      -1.07353
 (dLV/dLT)p        2.1007
 Cp, KJ/(KG)(K)    7.7709
 GAMMAs            1.1508
 SON VEL,M/SEC     1301.1

 DETONATION PARAMETERS

 P/P1              42.798
 T/T1              13.614
 M/M1              0.5881
 RHO/RHO1          1.8487
 DET MACH NUMBER   8.4258
 DET VEL,M/SEC     2405.4

 MOLE FRACTIONS

 *C              5.7508-8
 *CH             1.1920-8
 CH2             6.0201-9
 CH3             2.3000-9
 CH2OH           5.307-10
 CH3O            2.200-10
 CH4             1.981-10
 CH3OH           1.249-11
 CH3OOH          2.841-15
 *CO             4.5854-1
 *CO2            9.6417-2
 COOH            1.7173-5
 *C2             2.553-12
 C2H             1.569-11
 C2H2,acetylene  2.727-11
 C2H2,vinylidene 5.192-13
 CH2CO,ketene    1.317-10
 O(CH)2O         1.700-12
 HO(CO)2OH       1.313-13
 C2H3,vinyl      2.193-14
 CH3CO,acetyl    1.609-13
 C2H4            1.944-15
 CH3CHO,ethanal  1.416-15
 CH3COOH         4.934-16
 OHCH2COOH       1.235-16
 C2O             6.1772-9
 *C3             5.309-16
 C3O2            8.650-12
 *H              7.3387-2
 HCO             4.8204-5
 HCCO            3.185-10
 HO2             1.4226-4
 *H2             6.7885-2
 HCHO,formaldehy 5.8008-7
 HCOOH           1.0181-6
 H2O             1.2835-1
 H2O2            9.2862-6
 *O              5.0467-2
 *OH             8.8932-2
 *O2             3.5800-2
 O3              4.3539-7

  * THERMODYNAMIC PROPERTIES FITTED TO 20000.K


                     DETONATION PROPERTIES OF AN IDEAL REACTING GAS
 CASE =                

             REACTANT                       MOLES         ENERGY      TEMP
                                                         KJ/KG-MOL      K
 FUEL        C6H6                         1.0000000     83032.119    300.000
 OXIDANT     O2                           7.5000000        54.358    300.000

 O/F=    2.04827  %FUEL= 32.805512  R,EQ.RATIO= 1.500000  PHI,EQ.RATIO= 1.500000

 UNBURNED GAS

 P1, BAR           1.0000
 T1, K             300.00
 H1, KJ/KG         349.86
 M1, (1/n)         39.684
 GAMMA1            1.2778
 SON VEL1,M/SEC     283.4

 BURNED GAS

 P, BAR            44.205
 T, K             4090.76
 RHO, KG/CU M    2.9388 0
 H, KJ/KG         2442.78
 U, KJ/KG          938.59
 G, KJ/KG        -44048.2
 S, KJ/(KG)(K)    11.3649

 M, (1/n)          22.612
 (dLV/dLP)t      -1.06852
 (dLV/dLT)p        2.0201
 Cp, KJ/(KG)(K)    7.4390
 GAMMAs            1.1536
 SON VEL,M/SEC     1317.3

 DETONATION PARAMETERS

 P/P1              44.205
 T/T1              13.636
 M/M1              0.5698
 RHO/RHO1          1.8472
 DET MACH NUMBER   8.5861
 DET VEL,M/SEC     2433.3

 MOLE FRACTIONS

 *C              7.5556-8
 *CH             1.7180-8
 CH2             9.4764-9
 CH3             3.9497-9
 CH2OH           7.577-10
 CH3O            3.149-10
 CH4             3.722-10
 CH3OH           1.952-11
 CH3OOH          3.734-15
 *CO             4.8527-1
 *CO2            8.4450-2
 COOH            1.6735-5
 *C2             4.424-12
 C2H             2.962-11
 C2H2,acetylene  5.595-11
 C2H2,vinylidene 1.073-12
 CH2CO,ketene    2.234-10
 O(CH)2O         2.401-12
 HO(CO)2OH       1.272-13
 C2H3,vinyl      4.978-14
 CH3CO,acetyl    3.020-13
 C2H4            4.815-15
 CH3CHO,ethanal  2.910-15
 CH3COOH         8.398-16
 OHCH2COOH       1.752-16
 C2O             8.7484-9
 *C3             1.206-15
 C3O2            1.324-11
 *H              7.9252-2
 HCO             5.6695-5
 HCCO            4.948-10
 HO2             1.0679-4
 *H2             8.0011-2
 HCHO,formaldehy 7.4763-7
 HCOOH           1.0869-6
 H2O             1.2529-1
 H2O2            7.6381-6
 *O              4.1447-2
 *OH             7.9738-2
 *O2             2.4345-2
 O3              2.5057-7

  * THERMODYNAMIC PROPERTIES FITTED TO 20000.K


                     DETONATION PROPERTIES OF AN IDEAL REACTING GAS
 CASE =                

             REACTANT                       MOLES         ENERGY      TEMP
                                                         KJ/KG-MOL      K
 FUEL        C6H6                         1.0000000     83032.119    300.000
 OXIDANT     O2                           7.5000000        54.358    300.000

 O/F=    1.92025  %FUEL= 34.243626  R,EQ.RATIO= 1.600000  PHI,EQ.RATIO= 1.600000

 UNBURNED GAS

 P1, BAR           1.0000
 T1, K             300.00
 H1, KJ/KG         365.12
 M1, (1/n)         40.107
 GAMMA1            1.2734
 SON VEL1,M/SEC     281.4

 BURNED GAS

 P, BAR            45.500
 T, K             4087.94
 RHO, KG/CU M    2.9672 0
 H, KJ/KG         2498.81
 U, KJ/KG          965.35
 G, KJ/KG        -44426.6
 S, KJ/(KG)(K)    11.4790

 M, (1/n)          22.165
 (dLV/dLP)t      -1.06246
 (dLV/dLT)p        1.9265
 Cp, KJ/(KG)(K)    7.0285
 GAMMAs            1.1569
 SON VEL,M/SEC     1331.9

 DETONATION PARAMETERS

 P/P1              45.500
 T/T1              13.626
 M/M1              0.5527
 RHO/RHO1          1.8454
 DET MACH NUMBER   8.7342
 DET VEL,M/SEC     2457.9

 MOLE FRACTIONS

 *C              9.5402-8
 *CH             2.3886-8
 CH2             1.4536-8
 CH3             6.6871-9
 CH2OH           1.0532-9
 CH3O            4.372-10
 CH4             6.947-10
 CH3OH           2.990-11
 CH3OOH          4.673-15
 *CO             5.0994-1
 *CO2            7.2996-2
 COOH            1.5832-5
 *C2             7.350-12
 C2H             5.434-11
 C2H2,acetylene  1.135-10
 C2H2,vinylidene 2.170-12
 CH2CO,ketene    3.729-10
 O(CH)2O         3.288-12
 HO(CO)2OH       1.178-13
 C2H3,vinyl      1.108-13
 CH3CO,acetyl    5.531-13
 C2H4            1.183-14
 CH3CHO,ethanal  5.874-15
 CH3COOH         1.394-15
 OHCH2COOH       2.384-16
 C2O             1.2020-8
 *C3             2.643-15
 C3O2            1.977-11
 *H              8.4177-2
 HCO             6.5235-5
 HCCO            7.486-10
 HO2             7.6260-5
 *H2             9.3784-2
 HCHO,formaldehy 9.4769-7
 HCOOH           1.1329-6
 H2O             1.2077-1
 H2O2            6.0091-6
 *O              3.2773-2
 *OH             6.9570-2
 *O2             1.5831-2
 O3              1.3275-7

  * THERMODYNAMIC PROPERTIES FITTED TO 20000.K


                     DETONATION PROPERTIES OF AN IDEAL REACTING GAS
 CASE =                

             REACTANT                       MOLES         ENERGY      TEMP
                                                         KJ/KG-MOL      K
 FUEL        C6H6                         1.0000000     83032.119    300.000
 OXIDANT     O2                           7.5000000        54.358    300.000

 O/F=    1.80730  %FUEL= 35.621473  R,EQ.RATIO= 1.700000  PHI,EQ.RATIO= 1.700000

 UNBURNED GAS

 P1, BAR           1.0000
 T1, K             300.00
 H1, KJ/KG         379.75
 M1, (1/n)         40.520
 GAMMA1            1.2692
 SON VEL1,M/SEC     279.5

 BURNED GAS

 P, BAR            46.663
 T, K             4074.83
 RHO, KG/CU M    2.9940 0
 H, KJ/KG         2547.80
 U, KJ/KG          989.25
 G, KJ/KG        -44651.0
 S, KJ/(KG)(K)    11.5830

 M, (1/n)          21.738
 (dLV/dLP)t      -1.05560
 (dLV/dLT)p        1.8233
 Cp, KJ/(KG)(K)    6.5525
 GAMMAs            1.1607
 SON VEL,M/SEC     1345.0

 DETONATION PARAMETERS

 P/P1              46.663
 T/T1              13.583
 M/M1              0.5365
 RHO/RHO1          1.8431
 DET MACH NUMBER   8.8687
 DET VEL,M/SEC     2478.9

 MOLE FRACTIONS

 *C              1.1578-7
 *CH             3.2074-8
 CH2             2.1794-8
 CH3             1.1219-8
 CH2OH           1.4266-9
 CH3O            5.890-10
 CH4             1.2972-9
 CH3OH           4.504-11
 CH3OOH          5.551-15
 *CO             5.3259-1
 *CO2            6.2122-2
 COOH            1.4491-5
 *C2             1.176-11
 C2H             9.747-11
 C2H2,acetylene  2.298-10
 C2H2,vinylidene 4.325-12
 CH2CO,ketene    6.162-10
 O(CH)2O         4.379-12
 HO(CO)2OH       1.038-13
 C2H3,vinyl      2.440-13
 CH3CO,acetyl    9.948-13
 C2H4            2.914-14
 CH3CHO,ethanal  1.173-14
 CH3COOH         2.264-15
 OHCH2COOH       3.114-16
 C2O             1.6071-8
 *C3             5.642-15
 C3O2            2.898-11
 *H              8.7829-2
 HCO             7.3442-5
 HCCO            1.1072-9
 HO2             5.1282-5
 *H2             1.0940-1
 HCHO,formaldehy 1.1832-6
 HCOOH           1.1505-6
 H2O             1.1462-1
 H2O2            4.4825-6
 *O              2.4777-2
 *OH             5.8769-2
 *O2             9.7430-3
 O3              6.3643-8

  * THERMODYNAMIC PROPERTIES FITTED TO 20000.K


                     DETONATION PROPERTIES OF AN IDEAL REACTING GAS
 CASE =                

             REACTANT                       MOLES         ENERGY      TEMP
                                                         KJ/KG-MOL      K
 FUEL        C6H6                         1.0000000     83032.119    300.000
 OXIDANT     O2                           7.5000000        54.358    300.000

 O/F=    1.70689  %FUEL= 36.942762  R,EQ.RATIO= 1.800000  PHI,EQ.RATIO= 1.800000

 UNBURNED GAS

 P1, BAR           1.0000
 T1, K             300.00
 H1, KJ/KG         393.77
 M1, (1/n)         40.924
 GAMMA1            1.2652
 SON VEL1,M/SEC     277.7

 BURNED GAS

 P, BAR            47.670
 T, K             4050.37
 RHO, KG/CU M    3.0191 0
 H, KJ/KG         2588.95
 U, KJ/KG         1010.03
 G, KJ/KG        -44708.3
 S, KJ/(KG)(K)    11.6773

 M, (1/n)          21.329
 (dLV/dLP)t      -1.04831
 (dLV/dLT)p        1.7153
 Cp, KJ/(KG)(K)    6.0332
 GAMMAs            1.1652
 SON VEL,M/SEC     1356.4

 DETONATION PARAMETERS

 P/P1              47.670
 T/T1              13.501
 M/M1              0.5212
 RHO/RHO1          1.8402
 DET MACH NUMBER   8.9885
 DET VEL,M/SEC     2496.0

 MOLE FRACTIONS

 *C              1.3500-7
 *CH             4.1631-8
 CH2             3.2031-8
 CH3             1.8750-8
 CH2OH           1.8833-9
 CH3O            7.697-10
 CH4             2.4400-9
 CH3OH           6.680-11
 CH3OOH          6.226-15
 *CO             5.5328-1
 *CO2            5.1876-2
 COOH            1.2770-5
 *C2             1.823-11
 C2H             1.721-10
 C2H2,acetylene  4.690-10
 C2H2,vinylidene 8.573-12
 CH2CO,ketene    1.0142-9
 O(CH)2O         5.676-12
 HO(CO)2OH       8.637-14
 C2H3,vinyl      5.370-13
 CH3CO,acetyl    1.767-12
 C2H4            7.287-14
 CH3CHO,ethanal  2.337-14
 CH3COOH         3.612-15
 OHCH2COOH       3.891-16
 C2H5            1.563-16
 C2O             2.0972-8
 *C3             1.186-14
 C3H3,2-propynl  2.752-16
 C3O2            4.194-11
 *H              8.9855-2
 HCO             8.0850-5
 HCCO            1.6077-9
 HO2             3.2052-5
 *H2             1.2705-1
 HCHO,formaldehy 1.4562-6
 HCOOH           1.1344-6
 H2O             1.0671-1
 H2O2            3.1335-6
 *O              1.7754-2
 *OH             4.7749-2
 *O2             5.6016-3
 O3              2.7026-8

  * THERMODYNAMIC PROPERTIES FITTED TO 20000.K


                     DETONATION PROPERTIES OF AN IDEAL REACTING GAS
 CASE =                

             REACTANT                       MOLES         ENERGY      TEMP
                                                         KJ/KG-MOL      K
 FUEL        C6H6                         1.0000000     83032.119    300.000
 OXIDANT     O2                           7.5000000        54.358    300.000

 O/F=    1.61705  %FUEL= 38.210906  R,EQ.RATIO= 1.900000  PHI,EQ.RATIO= 1.900000

 UNBURNED GAS

 P1, BAR           1.0000
 T1, K             300.00
 H1, KJ/KG         407.23
 M1, (1/n)         41.320
 GAMMA1            1.2614
 SON VEL1,M/SEC     275.9

 BURNED GAS

 P, BAR            48.497
 T, K             4013.58
 RHO, KG/CU M    3.0424 0
 H, KJ/KG         2621.43
 U, KJ/KG         1027.41
 G, KJ/KG        -44586.2
 S, KJ/(KG)(K)    11.7620

 M, (1/n)          20.935
 (dLV/dLP)t      -1.04104
 (dLV/dLT)p        1.6085
 Cp, KJ/(KG)(K)    5.5013
 GAMMAs            1.1706
 SON VEL,M/SEC     1366.0

 DETONATION PARAMETERS

 P/P1              48.497
 T/T1              13.379
 M/M1              0.5067
 RHO/RHO1          1.8366
 DET MACH NUMBER   9.0919
 DET VEL,M/SEC     2508.9

 MOLE FRACTIONS

 *C              1.5130-7
 *CH             5.2305-8
 CH2             4.6305-8
 CH3             3.1389-8
 CH2OH           2.4209-9
 CH3O            9.741-10
 CH4             4.6584-9
 CH3OH           9.763-11
 CH3OOH          6.535-15
 *CO             5.7207-1
 *CO2            4.2296-2
 COOH            1.0758-5
 *C2             2.752-11
 C2H             3.021-10
 C2H2,acetylene  9.772-10
 C2H2,vinylidene 1.708-11
 CH2CO,ketene    1.6743-9
 O(CH)2O         7.159-12
 HO(CO)2OH       6.706-14
 C2H3,vinyl      1.195-12
 CH3CO,acetyl    3.121-12
 C2H4            1.876-13
 C2H4O,ethylen-o 1.305-16
 CH3CHO,ethanal  4.678-14
 CH3COOH         5.667-15
 OHCH2COOH       4.630-16
 C2H5            4.285-16
 C2O             2.6813-8
 *C3             2.491-14
 C3H3,2-propynl  8.382-16
 C3O2            6.034-11
 *H              8.9929-2
 HCO             8.6933-5
 HCCO            2.3028-9
 HO2             1.8309-5
 *H2             1.4685-1
 HCHO,formaldehy 1.7668-6
 HCOOH           1.0799-6
 H2O             9.6856-2
 H2O2            2.0213-6
 *O              1.1928-2
 *OH             3.6991-2
 *O2             2.9593-3
 O3              9.8966-9

  * THERMODYNAMIC PROPERTIES FITTED TO 20000.K


                     DETONATION PROPERTIES OF AN IDEAL REACTING GAS
 CASE =                

             REACTANT                       MOLES         ENERGY      TEMP
                                                         KJ/KG-MOL      K
 FUEL        C6H6                         1.0000000     83032.119    300.000
 OXIDANT     O2                           7.5000000        54.358    300.000

 O/F=    1.53620  %FUEL= 39.429049  R,EQ.RATIO= 2.000000  PHI,EQ.RATIO= 2.000000

 UNBURNED GAS

 P1, BAR           1.0000
 T1, K             300.00
 H1, KJ/KG         420.16
 M1, (1/n)         41.707
 GAMMA1            1.2577
 SON VEL1,M/SEC     274.3

 BURNED GAS

 P, BAR            49.124
 T, K             3963.85
 RHO, KG/CU M    3.0638 0
 H, KJ/KG         2644.61
 U, KJ/KG         1041.23
 G, KJ/KG        -44276.0
 S, KJ/(KG)(K)    11.8371

 M, (1/n)          20.555
 (dLV/dLP)t      -1.03424
 (dLV/dLT)p        1.5091
 Cp, KJ/(KG)(K)    4.9905
 GAMMAs            1.1770
 SON VEL,M/SEC     1373.7

 DETONATION PARAMETERS

 P/P1              49.124
 T/T1              13.213
 M/M1              0.4928
 RHO/RHO1          1.8324
 DET MACH NUMBER   9.1778
 DET VEL,M/SEC     2517.1

 MOLE FRACTIONS

 *C              1.6347-7
 *CH             6.3853-8
 CH2             6.6205-8
 CH3             5.3035-8
 CH2OH           3.0248-9
 CH3O            1.1914-9
 CH4             9.1093-9
 CH3OH           1.406-10
 CH3OOH          6.344-15
 *CO             5.8902-1
 *CO2            3.3416-2
 COOH            8.5797-6
 *C2             4.097-11
 C2H             5.344-10
 C2H2,acetylene  2.1140-9
 C2H2,vinylidene 3.473-11
 CH2CO,ketene    2.7969-9
 O(CH)2O         8.785-12
 HO(CO)2OH       4.777-14
 C2H3,vinyl      2.729-12
 CH3CO,acetyl    5.520-12
 C2H4            5.059-13
 C2H4O,ethylen-o 2.528-16
 CH3CHO,ethanal  9.492-14
 CH3COOH         8.754-15
 OHCH2COOH       5.199-16
 C2H5            1.217-15
 C2O             3.3801-8
 *C3             5.341-14
 C3H3,2-propynl  2.700-15
 C3O2            8.707-11
 *H              8.7823-2
 HCO             9.1165-5
 HCCO            3.2770-9
 HO2             9.3511-6
 *H2             1.6885-1
 HCHO,formaldehy 2.1126-6
 HCOOH           9.8379-7
 H2O             8.4946-2
 H2O2            1.1782-6
 *O              7.4162-3
 *OH             2.7014-2
 *O2             1.4061-3
 O3              3.0210-9

  * THERMODYNAMIC PROPERTIES FITTED TO 20000.K



