
 *******************************************************************************

         NASA-GLENN CHEMICAL EQUILIBRIUM PROGRAM CEA2, MAY 21, 2004
                   BY  BONNIE MCBRIDE AND SANFORD GORDON
      REFS: NASA RP-1311, PART I, 1994 AND NASA RP-1311, PART II, 1996

 *******************************************************************************



 problem    phi,eq.ratio=3.7,3.8,3.9,4,
       det   t,k=300,  p,bar=1,
 react
   fuel=C8H18,isooctane moles=1 t,k=300
   oxid=O2 moles=12.5 t,k=300
   oxid=N2 moles=47.0238 t,k=300
 output
      trace=1e-16 siunits short
 end


                     DETONATION PROPERTIES OF AN IDEAL REACTING GAS
 CASE =                

             REACTANT                       MOLES         ENERGY      TEMP
                                                         KJ/KG-MOL      K
 FUEL        C8H18,isooctane              1.0000000   -223660.458    300.000
 OXIDANT     O2                          12.5000000        54.358    300.000
 OXIDANT     N2                          47.0238000        53.881    300.000

 O/F=    4.06317  %FUEL= 19.750464  R,EQ.RATIO= 3.700000  PHI,EQ.RATIO= 3.700000

 UNBURNED GAS

 P1, BAR           1.0000
 T1, K             300.00
 H1, KJ/KG        -385.21
 M1, (1/n)         33.847
 GAMMA1            1.2749
 SON VEL1,M/SEC     306.5

 BURNED GAS

 P, BAR            12.856
 T, K             1359.04
 RHO, KG/CU M    2.3422 0
 H, KJ/KG          304.76
 U, KJ/KG         -244.14
 G, KJ/KG        -13619.3
 S, KJ/(KG)(K)    10.2455

 M, (1/n)          20.586
 MW, MOL WT        19.715
 (dLV/dLP)t      -1.01214
 (dLV/dLT)p        1.1260
 Cp, KJ/(KG)(K)    2.2777
 GAMMAs            1.2701
 SON VEL,M/SEC      835.0

 DETONATION PARAMETERS

 P/P1              12.856
 T/T1               4.530
 M/M1              0.6082
 RHO/RHO1          1.7261
 DET MACH NUMBER   4.7019
 DET VEL,M/SEC     1441.2

 MOLE FRACTIONS

 CH2             1.908-13
 CH3             1.7313-7
 CH2OH           2.135-12
 CH3O            7.004-14
 CH4             6.2020-3
 CH3OH           3.4582-9
 *CN             4.962-13
 *CO             2.2224-1
 *CO2            1.7530-3
 COOH            9.830-12
 C2H             4.056-16
 C2H2,acetylene  4.1046-7
 C2H2,vinylidene 2.247-13
 CH2CO,ketene    9.5387-8
 O(CH)2O         3.571-14
 C2H3,vinyl      1.004-11
 CH3CN           6.5263-7
 CH3CO,acetyl    1.168-11
 C2H4            2.1792-6
 C2H4O,ethylen-o 5.195-15
 CH3CHO,ethanal  1.7829-9
 CH3COOH         6.005-12
 C2H5            8.740-11
 C2H6            2.4297-7
 C2H5OH          1.422-12
 CH3OCH3         2.724-15
 OCCN            2.882-14
 C2N2            1.112-10
 C2O             4.540-15
 C3H3,2-propynl  7.442-12
 C3H4,allene     1.547-10
 C3H4,propyne    4.650-10
 C3H4,cyclo-     5.989-14
 C3H5,allyl      5.857-12
 C3H6,propylene  1.3818-9
 C3H6,cyclo-     1.822-12
 C3H6O,acetone   7.550-13
 C3H6O,propanal  1.727-13
 C3H7,n-propyl   9.725-15
 C3H7,i-propyl   1.117-14
 C3H8            2.915-11
 C3H8O,1propanol 1.591-16
 C3H8O,2propanol 2.128-16
 C3O2            4.769-12
 C4H2,butadiyne  2.173-13
 C4H6,butadiene  2.526-12
 C4H6,1butyne    5.966-14
 C4H6,2butyne    9.169-14
 C4H6,cyclo-     1.905-15
 C4H8,1-butene   1.550-13
 C4H8,cis2-buten 8.408-14
 C4H8,tr2-butene 9.478-14
 C4H8,isobutene  1.210-13
 C4H10,n-butane  3.511-15
 C4H10,isobutane 1.419-15
 C5H6,1,3cyclo-  3.725-14
 C5H8,cyclo-     3.328-16
 C6H6            7.907-13
 C7H8            7.395-16
 *H              4.0008-7
 HCN             1.4814-4
 HCO             3.4964-9
 HCCO            2.767-13
 HNC             1.2692-6
 HNCO            7.0467-7
 HNO             5.152-16
 *H2             2.8952-1
 HCHO,formaldehy 4.0265-7
 HCOOH           7.9757-9
 H2O             4.5745-3
 *N              2.045-16
 NCO             1.938-13
 *NH             7.446-14
 NH2             4.425-10
 NH3             1.3682-4
 NH2OH           6.992-16
 *NO             9.425-13
 *N2             4.3308-1
 N2H2            1.334-14
 N2H4            1.438-15
 N2O             1.656-16
 *O              1.364-16
 *OH             1.278-10
 C(gr)           4.2348-2

  * THERMODYNAMIC PROPERTIES FITTED TO 20000.K


                     DETONATION PROPERTIES OF AN IDEAL REACTING GAS
 CASE =                

             REACTANT                       MOLES         ENERGY      TEMP
                                                         KJ/KG-MOL      K
 FUEL        C8H18,isooctane              1.0000000   -223660.458    300.000
 OXIDANT     O2                          12.5000000        54.358    300.000
 OXIDANT     N2                          47.0238000        53.881    300.000

 O/F=    3.95625  %FUEL= 20.176559  R,EQ.RATIO= 3.800000  PHI,EQ.RATIO= 3.800000

 UNBURNED GAS

 P1, BAR           1.0000
 T1, K             300.00
 H1, KJ/KG        -393.57
 M1, (1/n)         33.974
 GAMMA1            1.2727
 SON VEL1,M/SEC     305.7

 BURNED GAS

 P, BAR            12.820
 T, K             1345.72
 RHO, KG/CU M    2.3549 0
 H, KJ/KG          291.32
 U, KJ/KG         -253.09
 G, KJ/KG        -13500.5
 S, KJ/(KG)(K)    10.2486

 M, (1/n)          20.552
 MW, MOL WT        19.542
 (dLV/dLP)t      -1.01345
 (dLV/dLT)p        1.1413
 Cp, KJ/(KG)(K)    2.3644
 GAMMAs            1.2649
 SON VEL,M/SEC      829.8

 DETONATION PARAMETERS

 P/P1              12.820
 T/T1               4.486
 M/M1              0.6050
 RHO/RHO1          1.7289
 DET MACH NUMBER   4.6934
 DET VEL,M/SEC     1434.7

 MOLE FRACTIONS

 CH2             1.373-13
 CH3             1.5565-7
 CH2OH           1.977-12
 CH3O            6.284-14
 CH4             6.8386-3
 CH3OH           3.8055-9
 *CN             3.355-13
 *CO             2.1806-1
 *CO2            1.9618-3
 COOH            9.467-12
 C2H             2.478-16
 C2H2,acetylene  3.3998-7
 C2H2,vinylidene 1.587-13
 CH2CO,ketene    9.0035-8
 O(CH)2O         3.453-14
 C2H3,vinyl      7.913-12
 CH3CN           6.2698-7
 CH3CO,acetyl    1.073-11
 C2H4            2.1511-6
 C2H4O,ethylen-o 5.009-15
 CH3CHO,ethanal  1.9002-9
 CH3COOH         7.164-12
 C2H5            8.211-11
 C2H6            2.7496-7
 C2H5OH          1.634-12
 CH3OCH3         2.999-15
 OCCN            2.119-14
 C2N2            8.339-11
 C2O             3.125-15
 C3H3,2-propynl  5.677-12
 C3H4,allene     1.349-10
 C3H4,propyne    4.078-10
 C3H4,cyclo-     4.847-14
 C3H5,allyl      5.263-12
 C3H6,propylene  1.4262-9
 C3H6,cyclo-     1.825-12
 C3H6O,acetone   8.560-13
 C3H6O,propanal  1.896-13
 C3H7,n-propyl   9.421-15
 C3H7,i-propyl   1.094-14
 C3H8            3.409-11
 C3H8O,1propanol 1.893-16
 C3H8O,2propanol 2.560-16
 C3O2            4.092-12
 C4H2,butadiyne  1.478-13
 C4H6,butadiene  2.391-12
 C4H6,1butyne    5.405-14
 C4H6,2butyne    8.481-14
 C4H6,cyclo-     1.743-15
 C4H8,1-butene   1.654-13
 C4H8,cis2-buten 9.056-14
 C4H8,tr2-butene 1.021-13
 C4H8,isobutene  1.310-13
 C4H10,n-butane  4.240-15
 C4H10,isobutane 1.727-15
 C5H6,1,3cyclo-  3.470-14
 C5H8,cyclo-     3.448-16
 C6H6            7.721-13
 C7H8            7.557-16
 *H              3.2924-7
 HCN             1.3170-4
 HCO             3.0246-9
 HCCO            2.122-13
 HNC             1.0681-6
 HNCO            6.9666-7
 HNO             4.199-16
 *H2             2.9158-1
 HCHO,formaldehy 4.0147-7
 HCOOH           8.9240-9
 H2O             5.1118-3
 *N              1.333-16
 NCO             1.524-13
 *NH             5.429-14
 NH2             3.775-10
 NH3             1.4487-4
 NH2OH           6.597-16
 *NO             7.685-13
 *N2             4.2701-1
 N2H2            1.111-14
 N2H4            1.346-15
 N2O             1.351-16
 *OH             1.106-10
 C(gr)           4.9148-2

  * THERMODYNAMIC PROPERTIES FITTED TO 20000.K


                     DETONATION PROPERTIES OF AN IDEAL REACTING GAS
 CASE =                

             REACTANT                       MOLES         ENERGY      TEMP
                                                         KJ/KG-MOL      K
 FUEL        C8H18,isooctane              1.0000000   -223660.458    300.000
 OXIDANT     O2                          12.5000000        54.358    300.000
 OXIDANT     N2                          47.0238000        53.881    300.000

 O/F=    3.85480  %FUEL= 20.598152  R,EQ.RATIO= 3.900000  PHI,EQ.RATIO= 3.900000

 UNBURNED GAS

 P1, BAR           1.0000
 T1, K             300.00
 H1, KJ/KG        -401.83
 M1, (1/n)         34.100
 GAMMA1            1.2706
 SON VEL1,M/SEC     304.9

 BURNED GAS

 P, BAR            12.789
 T, K             1333.27
 RHO, KG/CU M    2.3675 0
 H, KJ/KG          278.32
 U, KJ/KG         -261.87
 G, KJ/KG        -13389.7
 S, KJ/(KG)(K)    10.2515

 M, (1/n)          20.521
 MW, MOL WT        19.377
 (dLV/dLP)t      -1.01481
 (dLV/dLT)p        1.1574
 Cp, KJ/(KG)(K)    2.4561
 GAMMAs            1.2597
 SON VEL,M/SEC      824.9

 DETONATION PARAMETERS

 P/P1              12.789
 T/T1               4.444
 M/M1              0.6018
 RHO/RHO1          1.7318
 DET MACH NUMBER   4.6859
 DET VEL,M/SEC     1428.6

 MOLE FRACTIONS

 CH2             1.003-13
 CH3             1.4060-7
 CH2OH           1.836-12
 CH3O            5.663-14
 CH4             7.5054-3
 CH3OH           4.1667-9
 *CN             2.310-13
 *CO             2.1394-1
 *CO2            2.1809-3
 COOH            9.123-12
 C2H             1.549-16
 C2H2,acetylene  2.8400-7
 C2H2,vinylidene 1.138-13
 CH2CO,ketene    8.5147-8
 O(CH)2O         3.340-14
 C2H3,vinyl      6.304-12
 CH3CN           6.0337-7
 CH3CO,acetyl    9.897-12
 C2H4            2.1244-6
 C2H4O,ethylen-o 4.835-15
 CH3CHO,ethanal  2.0180-9
 CH3COOH         8.469-12
 C2H5            7.735-11
 C2H6            3.0939-7
 C2H5OH          1.865-12
 CH3OCH3         3.286-15
 OCCN            1.579-14
 C2N2            6.336-11
 C2O             2.187-15
 C3H3,2-propynl  4.384-12
 C3H4,allene     1.183-10
 C3H4,propyne    3.598-10
 C3H4,cyclo-     3.961-14
 C3H5,allyl      4.752-12
 C3H6,propylene  1.4699-9
 C3H6,cyclo-     1.828-12
 C3H6O,acetone   9.646-13
 C3H6O,propanal  2.072-13
 C3H7,n-propyl   9.141-15
 C3H7,i-propyl   1.072-14
 C3H8            3.959-11
 C3H8O,1propanol 2.234-16
 C3H8O,2propanol 3.054-16
 C3O2            3.532-12
 C4H2,butadiyne  1.023-13
 C4H6,butadiene  2.269-12
 C4H6,1butyne    4.919-14
 C4H6,2butyne    7.874-14
 C4H6,cyclo-     1.601-15
 C4H8,1-butene   1.760-13
 C4H8,cis2-buten 9.723-14
 C4H8,tr2-butene 1.097-13
 C4H8,isobutene  1.414-13
 C4H10,n-butane  5.079-15
 C4H10,isobutane 2.083-15
 C5H6,1,3cyclo-  3.244-14
 C5H8,cyclo-     3.567-16
 C6H6            7.548-13
 C7H8            7.716-16
 *H              2.7334-7
 HCN             1.1769-4
 HCO             2.6320-9
 HCCO            1.647-13
 HNC             9.0581-7
 HNCO            6.8857-7
 HNO             3.453-16
 *H2             2.9348-1
 HCHO,formaldehy 4.0005-7
 HCOOH           9.9219-9
 H2O             5.6782-3
 NCO             1.212-13
 *NH             4.015-14
 NH2             3.244-10
 NH3             1.5295-4
 NH2OH           6.238-16
 *NO             6.322-13
 *N2             4.2116-1
 N2H2            9.333-15
 N2H4            1.264-15
 N2O             1.113-16
 *OH             9.627-11
 C(gr)           5.5775-2

  * THERMODYNAMIC PROPERTIES FITTED TO 20000.K


                     DETONATION PROPERTIES OF AN IDEAL REACTING GAS
 CASE =                

             REACTANT                       MOLES         ENERGY      TEMP
                                                         KJ/KG-MOL      K
 FUEL        C8H18,isooctane              1.0000000   -223660.458    300.000
 OXIDANT     O2                          12.5000000        54.358    300.000
 OXIDANT     N2                          47.0238000        53.881    300.000

 O/F=    3.75843  %FUEL= 21.015316  R,EQ.RATIO= 4.000000  PHI,EQ.RATIO= 4.000000

 UNBURNED GAS

 P1, BAR           1.0000
 T1, K             300.00
 H1, KJ/KG        -410.00
 M1, (1/n)         34.226
 GAMMA1            1.2686
 SON VEL1,M/SEC     304.1

 BURNED GAS

 P, BAR            12.763
 T, K             1321.62
 RHO, KG/CU M    2.3802 0
 H, KJ/KG          265.73
 U, KJ/KG         -270.49
 G, KJ/KG        -13286.4
 S, KJ/(KG)(K)    10.2542

 M, (1/n)          20.493
 MW, MOL WT        19.217
 (dLV/dLP)t      -1.01623
 (dLV/dLT)p        1.1742
 Cp, KJ/(KG)(K)    2.5525
 GAMMAs            1.2546
 SON VEL,M/SEC      820.2

 DETONATION PARAMETERS

 P/P1              12.763
 T/T1               4.405
 M/M1              0.5987
 RHO/RHO1          1.7346
 DET MACH NUMBER   4.6793
 DET VEL,M/SEC     1422.8

 MOLE FRACTIONS

 CH2             7.435-14
 CH3             1.2759-7
 CH2OH           1.710-12
 CH3O            5.126-14
 CH4             8.2002-3
 CH3OH           4.5398-9
 *CN             1.618-13
 *CO             2.0988-1
 *CO2            2.4088-3
 COOH            8.795-12
 C2H2,acetylene  2.3921-7
 C2H2,vinylidene 8.294-14
 CH2CO,ketene    8.0676-8
 O(CH)2O         3.232-14
 C2H3,vinyl      5.077-12
 CH3CN           5.8163-7
 CH3CO,acetyl    9.154-12
 C2H4            2.0990-6
 C2H4O,ethylen-o 4.673-15
 CH3CHO,ethanal  2.1358-9
 CH3COOH         9.923-12
 C2H5            7.308-11
 C2H6            3.4621-7
 C2H5OH          2.115-12
 CH3OCH3         3.583-15
 OCCN            1.193-14
 C2N2            4.875-11
 C2O             1.555-15
 C3H3,2-propynl  3.427-12
 C3H4,allene     1.045-10
 C3H4,propyne    3.194-10
 C3H4,cyclo-     3.268-14
 C3H5,allyl      4.312-12
 C3H6,propylene  1.5129-9
 C3H6,cyclo-     1.832-12
 C3H6O,acetone   1.080-12
 C3H6O,propanal  2.254-13
 C3H7,n-propyl   8.885-15
 C3H7,i-propyl   1.051-14
 C3H8            4.567-11
 C3H8O,1propanol 2.615-16
 C3H8O,2propanol 3.613-16
 C3O2            3.066-12
 C4H2,butadiyne  7.205-14
 C4H6,butadiene  2.158-12
 C4H6,1butyne    4.498-14
 C4H6,2butyne    7.337-14
 C4H6,cyclo-     1.477-15
 C4H8,1-butene   1.867-13
 C4H8,cis2-buten 1.041-13
 C4H8,tr2-butene 1.174-13
 C4H8,isobutene  1.520-13
 C4H10,n-butane  6.035-15
 C4H10,isobutane 2.492-15
 C5H6,1,3cyclo-  3.042-14
 C5H8,cyclo-     3.686-16
 C6H6            7.387-13
 C7H8            7.874-16
 *H              2.2887-7
 HCN             1.0569-4
 HCO             2.3036-9
 HCCO            1.292-13
 HNC             7.7396-7
 HNCO            6.8040-7
 HNO             2.864-16
 *H2             2.9523-1
 HCHO,formaldehy 3.9840-7
 HCOOH           1.0963-8
 H2O             6.2711-3
 NCO             9.726-14
 *NH             3.012-14
 NH2             2.807-10
 NH3             1.6105-4
 NH2OH           5.911-16
 *NO             5.244-13
 *N2             4.1550-1
 N2H2            7.903-15
 N2H4            1.190-15
 *OH             8.428-11
 C(gr)           6.2239-2

  * THERMODYNAMIC PROPERTIES FITTED TO 20000.K



