
 *******************************************************************************

         NASA-GLENN CHEMICAL EQUILIBRIUM PROGRAM CEA2, MAY 21, 2004
                   BY  BONNIE MCBRIDE AND SANFORD GORDON
      REFS: NASA RP-1311, PART I, 1994 AND NASA RP-1311, PART II, 1996

 *******************************************************************************



 problem    phi,eq.ratio=3.7,3.8,3.9,4,
       det   t,k=300,  p,bar=1,
 react
   fuel=CH3OH moles=1 t,k=300
   oxid=O2 moles=1.5 t,k=300
 output
      trace=1e-16 siunits short
 end


                     DETONATION PROPERTIES OF AN IDEAL REACTING GAS
 CASE =                

             REACTANT                       MOLES         ENERGY      TEMP
                                                         KJ/KG-MOL      K
 FUEL        CH3OH                        1.0000000   -200858.418    300.000
 OXIDANT     O2                           1.5000000        54.358    300.000

 O/F=    0.40486  %FUEL= 71.181440  R,EQ.RATIO= 2.208955  PHI,EQ.RATIO= 3.700000

 UNBURNED GAS

 P1, BAR           1.0000
 T1, K             300.00
 H1, KJ/KG       -4461.61
 M1, (1/n)         32.029
 GAMMA1            1.2633
 SON VEL1,M/SEC     313.7

 BURNED GAS

 P, BAR            24.459
 T, K             1950.53
 RHO, KG/CU M    2.2628 0
 H, KJ/KG        -3029.79
 U, KJ/KG        -4110.70
 G, KJ/KG        -30830.6
 S, KJ/(KG)(K)    14.2530

 M, (1/n)          15.004
 (dLV/dLP)t      -1.00006
 (dLV/dLT)p        1.0013
 Cp, KJ/(KG)(K)    2.7055
 GAMMAs            1.2583
 SON VEL,M/SEC     1166.2

 DETONATION PARAMETERS

 P/P1              24.459
 T/T1               6.502
 M/M1              0.4684
 RHO/RHO1          1.7622
 DET MACH NUMBER   6.5524
 DET VEL,M/SEC     2055.2

 MOLE FRACTIONS

 *C              8.052-16
 *CH             1.702-14
 CH2             1.587-11
 CH3             3.0968-8
 CH2OH           1.303-10
 CH3O            1.189-11
 CH4             4.3942-6
 CH3OH           2.1410-9
 *CO             2.9684-1
 *CO2            3.6463-2
 COOH            3.9983-8
 C2H             4.982-15
 C2H2,acetylene  8.892-10
 C2H2,vinylidene 6.243-14
 CH2CO,ketene    3.1885-9
 O(CH)2O         4.994-13
 HO(CO)2OH       3.564-15
 C2H3,vinyl      1.934-13
 CH3CO,acetyl    1.799-12
 C2H4            8.552-11
 C2H4O,ethylen-o 3.660-16
 CH3CHO,ethanal  5.716-12
 CH3COOH         5.473-13
 OHCH2COOH       8.246-16
 C2H5            3.092-14
 C2H6            5.744-13
 C2H5OH          1.791-15
 C2O             6.169-13
 C3H3,2-propynl  7.556-16
 C3H4,allene     5.255-16
 C3H4,propyne    1.311-15
 C3H6,propylene  1.055-16
 C3O2            1.248-12
 *H              1.5330-4
 HCO             4.3997-7
 HCCO            2.687-12
 HO2             2.613-12
 *H2             4.3274-1
 HCHO,formaldehy 1.3048-6
 HCOOH           6.8296-7
 H2O             2.3378-1
 H2O2            3.927-11
 *O              1.9654-9
 *OH             8.5304-6
 *O2             4.602-10

  * THERMODYNAMIC PROPERTIES FITTED TO 20000.K


                     DETONATION PROPERTIES OF AN IDEAL REACTING GAS
 CASE =                

             REACTANT                       MOLES         ENERGY      TEMP
                                                         KJ/KG-MOL      K
 FUEL        CH3OH                        1.0000000   -200858.418    300.000
 OXIDANT     O2                           1.5000000        54.358    300.000

 O/F=    0.39421  %FUEL= 71.725393  R,EQ.RATIO= 2.235294  PHI,EQ.RATIO= 3.800000

 UNBURNED GAS

 P1, BAR           1.0000
 T1, K             300.00
 H1, KJ/KG       -4495.72
 M1, (1/n)         32.030
 GAMMA1            1.2626
 SON VEL1,M/SEC     313.6

 BURNED GAS

 P, BAR            23.898
 T, K             1894.01
 RHO, KG/CU M    2.2597 0
 H, KJ/KG        -3097.44
 U, KJ/KG        -4155.02
 G, KJ/KG        -30101.3
 S, KJ/(KG)(K)    14.2575

 M, (1/n)          14.890
 (dLV/dLP)t      -1.00006
 (dLV/dLT)p        1.0010
 Cp, KJ/(KG)(K)    2.7015
 GAMMAs            1.2611
 SON VEL,M/SEC     1154.9

 DETONATION PARAMETERS

 P/P1              23.898
 T/T1               6.313
 M/M1              0.4649
 RHO/RHO1          1.7598
 DET MACH NUMBER   6.4812
 DET VEL,M/SEC     2032.3

 MOLE FRACTIONS

 *C              2.883-16
 *CH             7.636-15
 CH2             1.047-11
 CH3             3.2083-8
 CH2OH           1.098-10
 CH3O            9.299-12
 CH4             6.8285-6
 CH3OH           2.5438-9
 *CO             2.9678-1
 *CO2            3.6533-2
 COOH            2.8774-8
 C2H             3.096-15
 C2H2,acetylene  1.0304-9
 C2H2,vinylidene 5.201-14
 CH2CO,ketene    3.7158-9
 O(CH)2O         4.656-13
 HO(CO)2OH       3.084-15
 C2H3,vinyl      1.992-13
 CH3CO,acetyl    1.943-12
 C2H4            1.386-10
 C2H4O,ethylen-o 4.293-16
 CH3CHO,ethanal  8.303-12
 CH3COOH         7.631-13
 OHCH2COOH       8.879-16
 C2H5            4.444-14
 C2H6            1.198-12
 C2H5OH          2.944-15
 C2O             3.827-13
 C3H3,2-propynl  9.505-16
 C3H4,allene     8.588-16
 C3H4,propyne    2.171-15
 C3H6,propylene  2.375-16
 C3O2            1.228-12
 *H              1.0306-4
 HCO             3.3197-7
 HCCO            2.060-12
 HO2             9.476-13
 *H2             4.3996-1
 HCHO,formaldehy 1.3029-6
 HCOOH           6.5781-7
 H2O             2.2662-1
 H2O2            1.867-11
 *O              7.554-10
 *OH             4.8989-6
 *O2             1.699-10

  * THERMODYNAMIC PROPERTIES FITTED TO 20000.K


                     DETONATION PROPERTIES OF AN IDEAL REACTING GAS
 CASE =                

             REACTANT                       MOLES         ENERGY      TEMP
                                                         KJ/KG-MOL      K
 FUEL        CH3OH                        1.0000000   -200858.418    300.000
 OXIDANT     O2                           1.5000000        54.358    300.000

 O/F=    0.38410  %FUEL= 72.249193  R,EQ.RATIO= 2.260870  PHI,EQ.RATIO= 3.900000

 UNBURNED GAS

 P1, BAR           1.0000
 T1, K             300.00
 H1, KJ/KG       -4528.56
 M1, (1/n)         32.030
 GAMMA1            1.2620
 SON VEL1,M/SEC     313.5

 BURNED GAS

 P, BAR            23.349
 T, K             1839.52
 RHO, KG/CU M    2.2567 0
 H, KJ/KG        -3163.20
 U, KJ/KG        -4197.82
 G, KJ/KG        -29394.5
 S, KJ/(KG)(K)    14.2598

 M, (1/n)          14.783
 (dLV/dLP)t      -1.00006
 (dLV/dLT)p        1.0009
 Cp, KJ/(KG)(K)    2.6992
 GAMMAs            1.2637
 SON VEL,M/SEC     1143.4

 DETONATION PARAMETERS

 P/P1              23.349
 T/T1               6.132
 M/M1              0.4615
 RHO/RHO1          1.7574
 DET MACH NUMBER   6.4102
 DET VEL,M/SEC     2009.5

 MOLE FRACTIONS

 *C              1.006-16
 *CH             3.356-15
 CH2             6.820-12
 CH3             3.3149-8
 CH2OH           9.206-11
 CH3O            7.233-12
 CH4             1.0686-5
 CH3OH           3.0309-9
 *CO             2.9662-1
 *CO2            3.6699-2
 COOH            2.0602-8
 C2H             1.896-15
 C2H2,acetylene  1.1925-9
 C2H2,vinylidene 4.294-14
 CH2CO,ketene    4.3354-9
 O(CH)2O         4.336-13
 HO(CO)2OH       2.676-15
 C2H3,vinyl      2.043-13
 CH3CO,acetyl    2.097-12
 C2H4            2.260-10
 C2H4O,ethylen-o 5.044-16
 CH3CHO,ethanal  1.213-11
 CH3COOH         1.073-12
 OHCH2COOH       9.611-16
 C2H5            6.405-14
 C2H6            2.527-12
 C2H5OH          4.880-15
 C2O             2.345-13
 C3H3,2-propynl  1.194-15
 C3H4,allene     1.410-15
 C3H4,propyne    3.612-15
 C3H6,propylene  5.405-16
 C3O2            1.207-12
 *H              6.8642-5
 HCO             2.4877-7
 HCCO            1.567-12
 HO2             3.373-13
 *H2             4.4688-1
 HCHO,formaldehy 1.3001-6
 HCOOH           6.3466-7
 H2O             2.1972-1
 H2O2            8.765-12
 *O              2.849-10
 *OH             2.7827-6
 *O2             6.160-11

  * THERMODYNAMIC PROPERTIES FITTED TO 20000.K


                     DETONATION PROPERTIES OF AN IDEAL REACTING GAS
 CASE =                

             REACTANT                       MOLES         ENERGY      TEMP
                                                         KJ/KG-MOL      K
 FUEL        CH3OH                        1.0000000   -200858.418    300.000
 OXIDANT     O2                           1.5000000        54.358    300.000

 O/F=    0.37450  %FUEL= 72.753938  R,EQ.RATIO= 2.285714  PHI,EQ.RATIO= 4.000000

 UNBURNED GAS

 P1, BAR           1.0000
 T1, K             300.00
 H1, KJ/KG       -4560.21
 M1, (1/n)         32.030
 GAMMA1            1.2613
 SON VEL1,M/SEC     313.4

 BURNED GAS

 P, BAR            22.811
 T, K             1786.99
 RHO, KG/CU M    2.2539 0
 H, KJ/KG        -3227.10
 U, KJ/KG        -4239.17
 G, KJ/KG        -28709.8
 S, KJ/(KG)(K)    14.2601

 M, (1/n)          14.681
 (dLV/dLP)t      -1.00008
 (dLV/dLT)p        1.0009
 Cp, KJ/(KG)(K)    2.6983
 GAMMAs            1.2661
 SON VEL,M/SEC     1132.0

 DETONATION PARAMETERS

 P/P1              22.811
 T/T1               5.957
 M/M1              0.4583
 RHO/RHO1          1.7552
 DET MACH NUMBER   6.3395
 DET VEL,M/SEC     1986.9

 MOLE FRACTIONS

 *CH             1.445-15
 CH2             4.389-12
 CH3             3.4170-8
 CH2OH           7.683-11
 CH3O            5.594-12
 CH4             1.6846-5
 CH3OH           3.6220-9
 *CO             2.9636-1
 *CO2            3.6958-2
 COOH            1.4675-8
 C2H             1.144-15
 C2H2,acetylene  1.3790-9
 C2H2,vinylidene 3.514-14
 CH2CO,ketene    5.0660-9
 O(CH)2O         4.035-13
 HO(CO)2OH       2.328-15
 C2H3,vinyl      2.086-13
 CH3CO,acetyl    2.263-12
 C2H4            3.707-10
 C2H4O,ethylen-o 5.936-16
 CH3CHO,ethanal  1.783-11
 CH3COOH         1.520-12
 OHCH2COOH       1.046-15
 C2H5            9.262-14
 C2H6            5.391-12
 C2H5OH          8.159-15
 C2O             1.420-13
 C3H3,2-propynl  1.498-15
 C3H4,allene     2.326-15
 C3H4,propyne    6.041-15
 C3H6,propylene  1.245-15
 C3O2            1.185-12
 *H              4.5298-5
 HCO             1.8516-7
 HCCO            1.183-12
 HO2             1.178-13
 *H2             4.5356-1
 HCHO,formaldehy 1.2967-6
 HCOOH           6.1340-7
 H2O             2.1306-1
 H2O2            4.061-12
 *O              1.054-10
 *OH             1.5632-6
 *O2             2.193-11

  * THERMODYNAMIC PROPERTIES FITTED TO 20000.K



