
 *******************************************************************************

         NASA-GLENN CHEMICAL EQUILIBRIUM PROGRAM CEA2, MAY 21, 2004
                   BY  BONNIE MCBRIDE AND SANFORD GORDON
      REFS: NASA RP-1311, PART I, 1994 AND NASA RP-1311, PART II, 1996

 *******************************************************************************



 problem    phi,eq.ratio=3.7,3.8,3.9,4,
       det   t,k=300,  p,bar=1,
 react
   fuel=CH4 moles=1 t,k=300
   oxid=O2 moles=2 t,k=300
   oxid=N2 moles=7.5238 t,k=300
 output
      trace=1e-16 siunits short
 end


                     DETONATION PROPERTIES OF AN IDEAL REACTING GAS
 CASE =                

             REACTANT                       MOLES         ENERGY      TEMP
                                                         KJ/KG-MOL      K
 FUEL        CH4                          1.0000000    -74533.907    300.000
 OXIDANT     O2                           2.0000000        54.358    300.000
 OXIDANT     N2                           7.5238000        53.881    300.000

 O/F=    4.62901  %FUEL= 17.765103  R,EQ.RATIO= 3.700000  PHI,EQ.RATIO= 3.700000

 UNBURNED GAS

 P1, BAR           1.0000
 T1, K             300.00
 H1, KJ/KG        -823.84
 M1, (1/n)         25.267
 GAMMA1            1.3662
 SON VEL1,M/SEC     367.2

 BURNED GAS

 P, BAR            9.1665
 T, K             1171.21
 RHO, KG/CU M    1.7513 0
 H, KJ/KG         -187.58
 U, KJ/KG         -710.99
 G, KJ/KG        -13145.3
 S, KJ/(KG)(K)    11.0635

 M, (1/n)          18.605
 (dLV/dLP)t      -1.03679
 (dLV/dLT)p        1.4434
 Cp, KJ/(KG)(K)    4.2591
 GAMMAs            1.2222
 SON VEL,M/SEC      799.8

 DETONATION PARAMETERS

 P/P1               9.167
 T/T1               3.904
 M/M1              0.7364
 RHO/RHO1          1.7289
 DET MACH NUMBER   3.7654
 DET VEL,M/SEC     1382.8

 MOLE FRACTIONS

 CH2             8.118-16
 CH3             2.2531-8
 CH2OH           3.799-13
 CH3O            7.534-15
 CH4             1.8375-2
 CH3OH           8.3611-9
 *CN             9.907-16
 *CO             1.7759-1
 *CO2            1.0042-2
 COOH            4.096-12
 C2H2,acetylene  1.4118-8
 C2H2,vinylidene 5.786-16
 CH2CO,ketene    2.3060-8
 O(CH)2O         1.088-14
 C2H3,vinyl      1.273-13
 CH3CN           1.8132-7
 CH3CO,acetyl    1.522-12
 C2H4            8.8208-7
 C2H4O,ethylen-o 1.224-15
 CH3CHO,ethanal  2.1197-9
 CH3COOH         3.807-11
 C2H5            1.312-11
 C2H6            6.1913-7
 C2H5OH          3.950-12
 CH3OCH3         3.772-15
 OCCN            1.561-16
 C2N2            8.661-13
 C3H3,2-propynl  4.592-14
 C3H4,allene     6.917-12
 C3H4,propyne    2.286-11
 C3H4,cyclo-     8.008-16
 C3H5,allyl      3.546-13
 C3H6,propylene  6.530-10
 C3H6,cyclo-     5.325-13
 C3H6O,acetone   1.387-12
 C3H6O,propanal  1.890-13
 C3H7,n-propyl   1.364-15
 C3H7,i-propyl   1.846-15
 C3H8            7.194-11
 C3H8O,1propanol 4.388-16
 C3H8O,2propanol 7.087-16
 C3O2            2.513-13
 C4H2,butadiyne  2.080-16
 C4H6,butadiene  2.430-13
 C4H6,1butyne    2.812-15
 C4H6,2butyne    6.040-15
 C4H6,cyclo-     1.055-16
 C4H8,1-butene   7.124-14
 C4H8,cis2-buten 4.491-14
 C4H8,tr2-butene 5.102-14
 C4H8,isobutene  7.044-14
 C4H10,n-butane  8.287-15
 C4H10,isobutane 3.783-15
 C5H6,1,3cyclo-  2.283-15
 C6H6            8.554-14
 *H              2.2260-8
 HCN             2.0703-5
 HCO             3.008-10
 HCCO            2.794-15
 HNC             7.2875-8
 HNCO            4.6617-7
 *H2             3.4983-1
 HCHO,formaldehy 2.8701-7
 HCOOH           3.1569-8
 H2O             2.5063-2
 NCO             3.815-15
 *NH             5.082-16
 NH2             3.191-11
 NH3             2.7032-4
 NH2OH           1.822-16
 *NO             4.038-14
 *N2             4.1881-1
 N2H2            5.775-16
 N2H4            2.833-16
 *OH             1.344-11

  * THERMODYNAMIC PROPERTIES FITTED TO 20000.K


                     DETONATION PROPERTIES OF AN IDEAL REACTING GAS
 CASE =                

             REACTANT                       MOLES         ENERGY      TEMP
                                                         KJ/KG-MOL      K
 FUEL        CH4                          1.0000000    -74533.907    300.000
 OXIDANT     O2                           2.0000000        54.358    300.000
 OXIDANT     N2                           7.5238000        53.881    300.000

 O/F=    4.50720  %FUEL= 18.158057  R,EQ.RATIO= 3.800000  PHI,EQ.RATIO= 3.800000

 UNBURNED GAS

 P1, BAR           1.0000
 T1, K             300.00
 H1, KJ/KG        -842.10
 M1, (1/n)         25.197
 GAMMA1            1.3656
 SON VEL1,M/SEC     367.7

 BURNED GAS

 P, BAR            9.0755
 T, K             1158.89
 RHO, KG/CU M    1.7497 0
 H, KJ/KG         -211.62
 U, KJ/KG         -730.32
 G, KJ/KG        -13053.5
 S, KJ/(KG)(K)    11.0812

 M, (1/n)          18.577
 (dLV/dLP)t      -1.04092
 (dLV/dLT)p        1.4990
 Cp, KJ/(KG)(K)    4.6075
 GAMMAs            1.2156
 SON VEL,M/SEC      794.0

 DETONATION PARAMETERS

 P/P1               9.075
 T/T1               3.863
 M/M1              0.7372
 RHO/RHO1          1.7320
 DET MACH NUMBER   3.7406
 DET VEL,M/SEC     1375.3

 MOLE FRACTIONS

 CH2             6.231-16
 CH3             2.2523-8
 CH2OH           3.379-13
 CH3O            6.453-15
 CH4             2.3395-2
 CH3OH           9.1021-9
 *CN             7.215-16
 *CO             1.7674-1
 *CO2            1.0106-2
 COOH            3.374-12
 C2H2,acetylene  1.5134-8
 C2H2,vinylidene 5.079-16
 CH2CO,ketene    2.4951-8
 O(CH)2O         1.041-14
 C2H3,vinyl      1.265-13
 CH3CN           2.3035-7
 CH3CO,acetyl    1.572-12
 C2H4            1.1455-6
 C2H4O,ethylen-o 1.325-15
 CH3CHO,ethanal  2.5985-9
 CH3COOH         4.616-11
 C2H5            1.581-11
 C2H6            9.2847-7
 C2H5OH          5.182-12
 CH3OCH3         4.689-15
 OCCN            1.268-16
 C2N2            8.398-13
 C3H3,2-propynl  5.133-14
 C3H4,allene     9.017-12
 C3H4,propyne    3.001-11
 C3H4,cyclo-     9.514-16
 C3H5,allyl      4.739-13
 C3H6,propylene  1.0230-9
 C3H6,cyclo-     8.042-13
 C3H6O,acetone   2.096-12
 C3H6O,propanal  2.745-13
 C3H7,n-propyl   1.948-15
 C3H7,i-propyl   2.669-15
 C3H8            1.283-10
 C3H8O,1propanol 6.856-16
 C3H8O,2propanol 1.124-15
 C3O2            2.493-13
 C4H2,butadiyne  2.394-16
 C4H6,butadiene  4.007-13
 C4H6,1butyne    4.387-15
 C4H6,2butyne    9.667-15
 C4H6,cyclo-     1.667-16
 C4H8,1-butene   1.327-13
 C4H8,cis2-buten 8.463-14
 C4H8,tr2-butene 9.622-14
 C4H8,isobutene  1.336-13
 C4H10,n-butane  1.756-14
 C4H10,isobutane 8.091-15
 C5H6,1,3cyclo-  4.324-15
 C5H8,cyclo-     1.655-16
 C6H6            2.012-13
 C7H8            2.689-16
 *H              1.7511-8
 HCN             2.0934-5
 HCO             2.524-10
 HCCO            2.365-15
 HNC             6.8814-8
 HNCO            4.6152-7
 *H2             3.4892-1
 HCHO,formaldehy 2.8380-7
 HCOOH           3.0974-8
 H2O             2.4381-2
 NCO             2.879-15
 *NH             3.427-16
 NH2             2.582-11
 NH3             2.8244-4
 NH2OH           1.417-16
 *NO             2.721-14
 *N2             4.1616-1
 N2H2            4.531-16
 N2H4            2.502-16
 *OH             9.641-12

  * THERMODYNAMIC PROPERTIES FITTED TO 20000.K


                     DETONATION PROPERTIES OF AN IDEAL REACTING GAS
 CASE =                

             REACTANT                       MOLES         ENERGY      TEMP
                                                         KJ/KG-MOL      K
 FUEL        CH4                          1.0000000    -74533.907    300.000
 OXIDANT     O2                           2.0000000        54.358    300.000
 OXIDANT     N2                           7.5238000        53.881    300.000

 O/F=    4.39163  %FUEL= 18.547273  R,EQ.RATIO= 3.900000  PHI,EQ.RATIO= 3.900000

 UNBURNED GAS

 P1, BAR           1.0000
 T1, K             300.00
 H1, KJ/KG        -860.19
 M1, (1/n)         25.129
 GAMMA1            1.3650
 SON VEL1,M/SEC     368.1

 BURNED GAS

 P, BAR            9.0764
 T, K             1151.88
 RHO, KG/CU M    1.7571 0
 H, KJ/KG         -229.53
 U, KJ/KG         -746.09
 G, KJ/KG        -13014.0
 S, KJ/(KG)(K)    11.0988

 M, (1/n)          18.540
 MW, MOL WT        18.459
 (dLV/dLP)t      -1.04393
 (dLV/dLT)p        1.5555
 Cp, KJ/(KG)(K)    5.2229
 GAMMAs            1.1959
 SON VEL,M/SEC      786.0

 DETONATION PARAMETERS

 P/P1               9.076
 T/T1               3.840
 M/M1              0.7378
 RHO/RHO1          1.7441
 DET MACH NUMBER   3.7241
 DET VEL,M/SEC     1370.8

 MOLE FRACTIONS

 CH2             5.062-16
 CH3             2.1466-8
 CH2OH           3.159-13
 CH3O            5.901-15
 CH4             2.5820-2
 CH3OH           9.6263-9
 *CN             5.619-16
 *CO             1.7277-1
 *CO2            1.0433-2
 COOH            3.122-12
 C2H2,acetylene  1.4083-8
 C2H2,vinylidene 4.210-16
 CH2CO,ketene    2.4491-8
 O(CH)2O         9.993-15
 C2H3,vinyl      1.134-13
 CH3CN           2.3840-7
 CH3CO,acetyl    1.513-12
 C2H4            1.2071-6
 C2H4O,ethylen-o 1.319-15
 CH3CHO,ethanal  2.7787-9
 CH3COOH         5.147-11
 C2H5            1.605-11
 C2H6            1.0777-6
 C2H5OH          5.840-12
 CH3OCH3         5.124-15
 OCCN            1.042-16
 C2N2            7.297-13
 C3H3,2-propynl  4.651-14
 C3H4,allene     8.989-12
 C3H4,propyne    3.005-11
 C3H4,cyclo-     8.988-16
 C3H5,allyl      4.825-13
 C3H6,propylene  1.1495-9
 C3H6,cyclo-     8.847-13
 C3H6O,acetone   2.420-12
 C3H6O,propanal  3.097-13
 C3H7,n-propyl   2.089-15
 C3H7,i-propyl   2.883-15
 C3H8            1.575-10
 C3H8O,1propanol 8.180-16
 C3H8O,2propanol 1.353-15
 C3O2            2.275-13
 C4H2,butadiyne  2.068-16
 C4H6,butadiene  4.379-13
 C4H6,1butyne    4.642-15
 C4H6,2butyne    1.038-14
 C4H6,cyclo-     1.777-16
 C4H8,1-butene   1.578-13
 C4H8,cis2-buten 1.012-13
 C4H8,tr2-butene 1.152-13
 C4H8,isobutene  1.605-13
 C4H10,n-butane  2.278-14
 C4H10,isobutane 1.056-14
 C5H6,1,3cyclo-  4.832-15
 C5H8,cyclo-     1.992-16
 C6H6            2.406-13
 C7H8            3.431-16
 *H              1.5187-8
 HCN             1.9845-5
 HCO             2.251-10
 HCCO            2.001-15
 HNC             6.2701-8
 HNCO            4.5347-7
 *H2             3.4948-1
 HCHO,formaldehy 2.8012-7
 HCOOH           3.1935-8
 H2O             2.5254-2
 NCO             2.402-15
 *NH             2.722-16
 NH2             2.295-11
 NH3             2.9297-4
 NH2OH           1.299-16
 *NO             2.252-14
 *N2             4.1156-1
 N2H2            3.961-16
 N2H4            2.375-16
 *OH             8.315-12
 C(gr)           4.3705-3

  * THERMODYNAMIC PROPERTIES FITTED TO 20000.K


                     DETONATION PROPERTIES OF AN IDEAL REACTING GAS
 CASE =                

             REACTANT                       MOLES         ENERGY      TEMP
                                                         KJ/KG-MOL      K
 FUEL        CH4                          1.0000000    -74533.907    300.000
 OXIDANT     O2                           2.0000000        54.358    300.000
 OXIDANT     N2                           7.5238000        53.881    300.000

 O/F=    4.28184  %FUEL= 18.932806  R,EQ.RATIO= 4.000000  PHI,EQ.RATIO= 4.000000

 UNBURNED GAS

 P1, BAR           1.0000
 T1, K             300.00
 H1, KJ/KG        -878.11
 M1, (1/n)         25.062
 GAMMA1            1.3645
 SON VEL1,M/SEC     368.5

 BURNED GAS

 P, BAR            9.0218
 T, K             1145.04
 RHO, KG/CU M    1.7537 0
 H, KJ/KG         -250.21
 U, KJ/KG         -764.65
 G, KJ/KG        -12978.7
 S, KJ/(KG)(K)    11.1162

 M, (1/n)          18.507
 MW, MOL WT        18.318
 (dLV/dLP)t      -1.04582
 (dLV/dLT)p        1.5815
 Cp, KJ/(KG)(K)    5.4149
 GAMMAs            1.1929
 SON VEL,M/SEC      783.4

 DETONATION PARAMETERS

 P/P1               9.022
 T/T1               3.817
 M/M1              0.7384
 RHO/RHO1          1.7454
 DET MACH NUMBER   3.7103
 DET VEL,M/SEC     1367.3

 MOLE FRACTIONS

 CH2             3.992-16
 CH3             1.9773-8
 CH2OH           2.916-13
 CH3O            5.330-15
 CH4             2.7434-2
 CH3OH           1.0017-8
 *CN             4.252-16
 *CO             1.6763-1
 *CO2            1.0913-2
 COOH            2.926-12
 C2H2,acetylene  1.2276-8
 C2H2,vinylidene 3.274-16
 CH2CO,ketene    2.2985-8
 O(CH)2O         9.368-15
 C2H3,vinyl      9.512-14
 CH3CN           2.2966-7
 CH3CO,acetyl    1.389-12
 C2H4            1.1850-6
 C2H4O,ethylen-o 1.250-15
 CH3CHO,ethanal  2.8268-9
 CH3COOH         5.573-11
 C2H5            1.517-11
 C2H6            1.1593-6
 C2H5OH          6.234-12
 CH3OCH3         5.304-15
 C2N2            5.931-13
 C3H3,2-propynl  3.811-14
 C3H4,allene     8.079-12
 C3H4,propyne    2.711-11
 C3H4,cyclo-     7.661-16
 C3H5,allyl      4.419-13
 C3H6,propylene  1.1581-9
 C3H6,cyclo-     8.728-13
 C3H6O,acetone   2.558-12
 C3H6O,propanal  3.200-13
 C3H7,n-propyl   2.006-15
 C3H7,i-propyl   2.788-15
 C3H8            1.724-10
 C3H8O,1propanol 8.897-16
 C3H8O,2propanol 1.484-15
 C3O2            1.969-13
 C4H2,butadiyne  1.566-16
 C4H6,butadiene  4.150-13
 C4H6,1butyne    4.263-15
 C4H6,2butyne    9.673-15
 C4H6,cyclo-     1.644-16
 C4H8,1-butene   1.618-13
 C4H8,cis2-buten 1.045-13
 C4H8,tr2-butene 1.190-13
 C4H8,isobutene  1.664-13
 C4H10,n-butane  2.538-14
 C4H10,isobutane 1.182-14
 C5H6,1,3cyclo-  4.527-15
 C5H8,cyclo-     2.002-16
 C6H6            2.330-13
 C7H8            3.413-16
 *H              1.3232-8
 HCN             1.8199-5
 HCO             1.991-10
 HCCO            1.625-15
 HNC             5.5297-8
 HNCO            4.4005-7
 *H2             3.5031-1
 HCHO,formaldehy 2.7336-7
 HCOOH           3.3233-8
 H2O             2.6727-2
 NCO             1.987-15
 *NH             2.168-16
 NH2             2.038-11
 NH3             3.0247-4
 NH2OH           1.213-16
 *NO             1.912-14
 *N2             4.0648-1
 N2H2            3.451-16
 N2H4            2.235-16
 *OH             7.360-12
 C(gr)           1.0182-2

  * THERMODYNAMIC PROPERTIES FITTED TO 20000.K



