*******************************************************************************

         NASA-GLENN CHEMICAL EQUILIBRIUM PROGRAM CEA2, FEBRUARY 5, 2004
                   BY  BONNIE MCBRIDE AND SANFORD GORDON
      REFS: NASA RP-1311, PART I, 1994 AND NASA RP-1311, PART II, 1996

 *******************************************************************************



  
 ### CEA analysis performed on Mon 11-Jul-2022 12:57:11
  
 # Problem Type: "Assigned Temperature and Volume (or Density)"
  
 prob case=test___________5469 tv
  
 # Temperature (1 value):
 t,k= 3000
 # Density (1 value):
 rho,kg/m**3= 1.0857
  
 # Equivalence based on Fuel/Oxid. wt ratio (Eq 9.19*) (1 value):
 phi= 2
  
 # You selected the following fuels and oxidizers:
 reac
 fuel CH4              mole=100.0000  t,k= 300.000
 oxid Air              mole=100.0000  t,k= 300.000
  
 # You selected these options for output:
 # short version of output
 output short
 # Proportions of any products will be expressed as Mole Fractions.
 # Heat will be expressed as siunits
 output siunits
 # Trace variable:
 output trace=1e-16
  
 # Input prepared by this script:/var/www/sites/cearun.grc.nasa.gov/cgi-bin/CEARU
 N/prepareInputFile.cgi
  
 ### IMPORTANT:  The following line is the end of your CEA input file!
 end




               THERMODYNAMIC EQUILIBRIUM PROPERTIES AT ASSIGNED

                            TEMPERATURE AND VOLUME

 CASE = test___________

             REACTANT                       MOLES         ENERGY      TEMP
                                                         KJ/KG-MOL      K
 FUEL        CH4                        100.0000000    -77028.260    300.000
 OXIDANT     Air                        100.0000000     -2566.042    300.000

 O/F=    8.61926  %FUEL= 10.395809  R,EQ.RATIO= 1.998479  PHI,EQ.RATIO= 2.000000

 THERMODYNAMIC PROPERTIES

 P, BAR            12.038
 T, K             3000.00
 RHO, KG/CU M    1.0857 0
 H, KJ/KG         2238.68
 U, KJ/KG         1129.94
 G, KJ/KG        -31037.7
 S, KJ/(KG)(K)    11.0921

 M, (1/n)          22.497
 (dLV/dLP)t      -1.00638
 (dLV/dLT)p        1.1260
 Cp, KJ/(KG)(K)    2.6933
 GAMMAs            1.2014
 SON VEL,M/SEC     1154.1

 MOLE FRACTIONS

 *Ar             6.5177-3
 *C              7.283-11
 *CH             4.462-11
 CH2             1.790-10
 CH3             7.278-10
 CH2OH           2.930-11
 CH3O            6.928-12
 CH4             4.097-10
 CH3OH           3.682-12
 *CN             1.2794-8
 CNN             1.150-14
 *CO             1.3166-1
 *CO2            1.4346-2
 COOH            3.0807-7
 *C2             7.766-16
 C2H             5.860-14
 C2H2,acetylene  2.901-12
 C2H2,vinylidene 9.152-15
 CH2CO,ketene    8.314-12
 O(CH)2O         1.585-14
 HO(CO)2OH       2.178-16
 C2H3,vinyl      9.983-16
 CH3CN           1.096-15
 CH3CO,acetyl    4.895-15
 C2H4            9.191-16
 CH3CHO,ethanal  1.944-16
 CNC             5.029-16
 OCCN            2.093-12
 C2N2            1.533-13
 C2O             1.566-11
 C3O2            2.566-14
 *H              1.7945-2
 HCN             1.0873-6
 HCO             2.1686-6
 HCCO            2.286-12
 HNC             1.8933-7
 HNCO            2.4810-7
 HNO             5.6941-7
 HNO2            9.7888-9
 HNO3            8.399-14
 HO2             3.0946-7
 *H2             1.5499-1
 HCHO,formaldehy 1.0113-7
 HCOOH           7.4279-8
 H2O             1.2500-1
 H2O2            7.8788-8
 *N              2.9546-6
 NCO             2.2713-8
 *NH             1.9670-6
 NH2             1.8821-6
 NH3             3.7120-6
 NH2OH           2.431-10
 *NO             8.9963-4
 NO2             4.1332-8
 NO3             1.191-14
 *N2             5.4298-1
 N2O             1.5071-7
 NCN             1.031-12
 N2H2            2.454-10
 N2H4            3.344-14
 N2O3            5.517-16
 N3              2.009-11
 N3H             1.355-11
 *O              3.3924-4
 *OH             5.2070-3
 *O2             1.0820-4
 O3              5.252-12

  * THERMODYNAMIC PROPERTIES FITTED TO 20000.K



