*******************************************************************************

         NASA-GLENN CHEMICAL EQUILIBRIUM PROGRAM CEA2, FEBRUARY 5, 2004
                   BY  BONNIE MCBRIDE AND SANFORD GORDON
      REFS: NASA RP-1311, PART I, 1994 AND NASA RP-1311, PART II, 1996

 *******************************************************************************



  
 ### CEA analysis performed on Mon 11-Jul-2022 13:07:36
  
 # Problem Type: "Assigned Temperature and Volume (or Density)"
  
 prob case=test___________5469 tv
  
 # Temperature (1 value):
 t,k= 3000
 # Density (1 value):
 rho,kg/m**3= 1.0216
  
 # Equivalence based on Fuel/Oxid. wt ratio (Eq 9.19*) (1 value):
 phi= 4
  
 # You selected the following fuels and oxidizers:
 reac
 fuel CH4              mole=100.0000  t,k= 300.000
 oxid Air              mole=100.0000  t,k= 300.000
  
 # You selected these options for output:
 # short version of output
 output short
 # Proportions of any products will be expressed as Mole Fractions.
 # Heat will be expressed as siunits
 output siunits
 # Trace variable:
 output trace=1e-16
  
 # Input prepared by this script:/var/www/sites/cearun.grc.nasa.gov/cgi-bin/CEARU
 N/prepareInputFile.cgi
  
 ### IMPORTANT:  The following line is the end of your CEA input file!
 end




               THERMODYNAMIC EQUILIBRIUM PROPERTIES AT ASSIGNED

                            TEMPERATURE AND VOLUME

 CASE = test___________

             REACTANT                       MOLES         ENERGY      TEMP
                                                         KJ/KG-MOL      K
 FUEL        CH4                        100.0000000    -77028.260    300.000
 OXIDANT     Air                        100.0000000     -2566.042    300.000

 O/F=    4.30963  %FUEL= 18.833702  R,EQ.RATIO= 3.995438  PHI,EQ.RATIO= 4.000000

 THERMODYNAMIC PROPERTIES

 P, BAR            14.795
 T, K             3000.00
 RHO, KG/CU M    1.0216 0
 H, KJ/KG         4269.00
 U, KJ/KG         2820.78
 G, KJ/KG        -35427.1
 S, KJ/(KG)(K)    13.2320

 M, (1/n)          17.224
 (dLV/dLP)t      -1.00693
 (dLV/dLT)p        1.1173
 Cp, KJ/(KG)(K)    3.1726
 GAMMAs            1.2240
 SON VEL,M/SEC     1331.4

 MOLE FRACTIONS

 *Ar             4.5199-3
 *C              3.3899-8
 *CH             3.6519-8
 CH2             2.5772-7
 CH3             1.8425-6
 CH2OH           2.436-10
 CH3O            5.761-11
 CH4             1.8240-6
 CH3OH           5.385-11
 *CN             5.4965-6
 CNN             4.558-12
 *CO             2.0130-1
 *CO2            7.2056-5
 COOH            2.7212-9
 *C2             2.068-10
 C2H             2.7441-8
 C2H2,acetylene  2.3893-6
 C2H2,vinylidene 7.5368-9
 CH2CO,ketene    2.2489-8
 O(CH)2O         1.409-13
 C2H3,vinyl      1.4458-9
 CH3CN           1.4646-9
 CH3CO,acetyl    2.329-11
 C2H4            2.3408-9
 C2H4O,ethylen-o 1.323-15
 CH3CHO,ethanal  1.627-12
 CH3COOH         7.589-16
 C2H5            2.489-12
 C2H6            4.369-13
 CCN             1.259-12
 CNC             1.236-10
 OCCN            1.6896-9
 C2N2            3.4778-8
 C2O             1.3694-8
 *C3             2.051-11
 C3H3,1-propynl  1.075-13
 C3H3,2-propynl  6.416-11
 C3H4,allene     1.547-12
 C3H4,propyne    3.292-12
 C3H4,cyclo-     3.706-14
 C3H5,allyl      2.127-14
 C3H6,propylene  3.877-15
 CNCOCN          4.090-15
 C3O2            4.217-11
 *C4             6.783-16
 C4H2,butadiyne  6.071-12
 C4N2            7.143-14
 *H              2.5677-2
 HCN             8.2148-4
 HCO             5.8311-6
 HCCN            4.900-12
 HCCO            3.5161-9
 HNC             1.4304-4
 HNCO            6.1575-7
 HNO             2.4703-9
 HNO2            1.395-13
 HO2             4.778-12
 *H2             3.9000-1
 HCHO,formaldehy 4.7821-7
 HCOOH           1.1538-9
 H2O             1.0333-3
 H2O2            2.139-12
 *N              2.2188-6
 NCO             3.2054-8
 *NH             2.5978-6
 NH2             4.3713-6
 NH3             1.5162-5
 NH2OH           3.262-12
 *NO             2.2193-6
 NO2             3.349-13
 *N2             3.7637-1
 N2O             3.432-10
 NCN             4.087-10
 N2H2            5.261-10
 N2H4            2.217-13
 N3              1.285-11
 N3H             1.525-11
 *O              9.0669-7
 *OH             2.4474-5
 *O2             9.499-10

  * THERMODYNAMIC PROPERTIES FITTED TO 20000.K


