
 *******************************************************************************

         NASA-GLENN CHEMICAL EQUILIBRIUM PROGRAM CEA2, MAY 21, 2004
                   BY  BONNIE MCBRIDE AND SANFORD GORDON
      REFS: NASA RP-1311, PART I, 1994 AND NASA RP-1311, PART II, 1996

 *******************************************************************************



 problem
       shock  inc  ref  eq  mach1=2,3,4,5,6,7,8,9,9,10, t,k=300,300,300,300,300,3
 00,300,300,300,300,  p,bar=1,1,1,1,1,1,1,1,1,1,

 NOTE!! MAXIMUM NUMBER OF ASSIGNED mach1 VALUES IS  8 (INPUT)

 react
   name=O2 moles=1 t,k=300
   name=N2 moles=3.7619 t,k=300
 output
      trace=1e-16 siunits short
 end




                         SHOCK WAVE PARAMETERS ASSUMING

                 EQUILIBRIUM COMPOSITION FOR INCIDENT SHOCKED CONDITIONS


 CASE =                

             REACTANT                       MOLES         ENERGY      TEMP
                                                         KJ/KG-MOL      K
 NAME        O2                           1.0000000        54.358    300.000
 NAME        N2                           3.7619000        53.881    300.000

 O/F=    0.00000  %FUEL=  0.000000  R,EQ.RATIO= 0.000000  PHI,EQ.RATIO= 0.000000

 INITIAL GAS (1)
 MACH NUMBER1      2.0000   3.0000   4.0000   5.0000   6.0000   7.0000   8.0000   9.0000
 U1, M/SEC         695.44  1043.16  1390.88  1738.61  2086.33  2434.05  2781.77  3129.49
 P, BAR            1.0000   1.0000   1.0000   1.0000   1.0000   1.0000   1.0000   1.0000
 T, K              300.00   300.00   300.00   300.00   300.00   300.00   300.00   300.00
 RHO, KG/CU M    1.1566 0 1.1566 0 1.1566 0 1.1566 0 1.1566 0 1.1566 0 1.1566 0 1.1566 0
 H, KJ/KG          1.8711   1.8711   1.8711   1.8711   1.8711   1.8711   1.8711   1.8711
 U, KJ/KG         -84.587  -84.587  -84.587  -84.587  -84.587  -84.587  -84.587  -84.587
 G, KJ/KG        -2066.46 -2066.46 -2066.46 -2066.46 -2066.46 -2066.46 -2066.46 -2066.46
 S, KJ/(KG)(K)     6.8944   6.8944   6.8944   6.8944   6.8944   6.8944   6.8944   6.8944

 M, (1/n)          28.850   28.850   28.850   28.850   28.850   28.850   28.850   28.850
 Cp, KJ/(KG)(K)    1.0114   1.0114   1.0114   1.0114   1.0114   1.0114   1.0114   1.0114
 GAMMAs            1.3985   1.3985   1.3985   1.3985   1.3985   1.3985   1.3985   1.3985
 SON VEL,M/SEC      347.7    347.7    347.7    347.7    347.7    347.7    347.7    347.7

 SHOCKED GAS (2)--INCIDENT--EQUILIBRIUM
 U2, M/SEC         258.93   262.14   283.64   310.28   337.42   362.33   382.91   399.34
 P, BAR            4.5112   10.423   18.813   29.722   43.203   59.325   78.183   99.822
 T, K              503.88   785.80  1150.92  1591.37  2096.18  2647.33  3211.86  3755.58
 RHO, KG/CU M    3.1066 0 4.6027 0 5.6718 0 6.4809 0 7.1515 0 7.7700 0 8.4026 0 9.0641 0
 H, KJ/KG          210.17   511.61   928.93  1465.11  2121.32  2898.53  3797.68  4818.99
 U, KJ/KG          64.956   285.14   597.24  1006.49  1517.22  2135.02  2867.23  3717.70
 G, KJ/KG        -3311.69 -5163.59 -7688.26 -10866.8 -14646.1 -18905.4 -23386.2 -27800.2
 S, KJ/(KG)(K)     6.9895   7.2222   7.4872   7.7492   7.9990   8.2362   8.4636   8.6855

 M, (1/n)          28.850   28.850   28.851   28.851   28.850   28.829   28.701   28.354
 (dLV/dLP)t      -1.00000 -1.00000 -1.00000 -1.00001 -1.00005 -1.00046 -1.00269 -1.00842
 (dLV/dLT)p        1.0000   1.0000   1.0000   1.0000   1.0006   1.0093   1.0490   1.1318
 Cp, KJ/(KG)(K)    1.0371   1.1031   1.1793   1.2548   1.3476   1.4873   1.7435   2.1044
 GAMMAs            1.3848   1.3536   1.3234   1.2981   1.2724   1.2455   1.2198   1.2049
 SON VEL,M/SEC      448.4    553.7    662.5    771.6    876.7    975.2   1065.3   1152.0

 P2/P1              4.511   10.423   18.813   29.722   43.203   59.325   78.183   99.822
 T2/T1              1.680    2.619    3.836    5.305    6.987    8.824   10.706   12.519
 M2/M1             1.0000   1.0000   1.0000   1.0000   1.0000   0.9993   0.9948   0.9828
 RHO2/RHO1         2.6859   3.9794   4.9038   5.6033   6.1831   6.7178   7.2648   7.8367
 V2, M/SEC         436.52   781.02  1107.25  1428.32  1748.90  2071.72  2398.86  2730.15

 MOLE FRACTIONS

 *N              0.000  0 1.361-29 1.119-19 8.962-14 4.571-10 1.211 -7 4.912 -6 5.896 -5
 *NO             6.266-10 1.565 -6 1.324 -4 1.862 -3 9.723 -3 2.805 -2 5.454 -2 8.051 -2
 NO2             7.0318-8 1.8340-6 1.2476-5 4.1989-5 9.4230-5 1.6145-4 2.2429-4 2.6064-4
 NO3             1.946-16 1.915-13 1.183-11 1.668-10 9.984-10 3.399 -9 7.545 -9 1.181 -8
 *N2             7.9000-1 7.9000-1 7.8993-1 7.8906-1 7.8509-1 7.7530-1 7.5850-1 7.3594-1
 N2O             3.425-13 5.585-10 4.168 -8 6.090 -7 3.576 -6 1.198 -5 2.723 -5 4.664 -5
 N2O3            1.781-19 1.178-15 2.347-13 7.150-12 7.349-11 3.724-10 1.116 -9 2.203 -9
 N2O4            1.398-17 2.174-16 1.622-15 7.941-15 2.828-14 7.545-14 1.505-13 2.232-13
 N2O5            1.718-20 5.033-19 5.720-18 3.809-17 1.716-16 5.461-16 1.227-15 1.928-15
 N3              0.000  0 9.143-33 1.980-23 8.080-18 2.992-14 6.977-12 2.771-10 3.452 -9
 *O              3.979-24 5.718-15 8.971-10 1.096 -6 9.320 -5 1.648 -3 1.059 -2 3.468 -2
 *O2             2.1000-1 2.1000-1 2.0992-1 2.0903-1 2.0500-1 1.9483-1 1.7611-1 1.4850-1
 O3              1.015-19 2.885-14 3.963-11 3.217 -9 5.440 -8 3.699 -7 1.391 -6 3.338 -6

  * THERMODYNAMIC PROPERTIES FITTED TO 20000.K

 SHOCKED GAS (5)--REFLECTED--EQUILIBRIUM
 U5, M/SEC         190.60   258.93   316.26   366.29   409.17   448.83   492.44   543.04
 P, BAR            15.019   52.424   116.15   207.54   328.75   485.05   686.61   943.18
 T, K              732.49  1310.30  2029.75  2847.29  3700.22  4554.92  5463.37  6485.93
 RHO, KG/CU M    7.1145 0 1.3883 1 1.9858 1 2.5272 1 3.0568 1 3.5865 1 4.0932 1 4.5570 1
 H, KJ/KG          453.14  1119.14  2032.12  3188.78  4584.79  6231.55  8161.38  10396.5
 U, KJ/KG          242.04   741.53  1447.19  2367.55  3509.32  4879.13  6483.93  8326.80
 G, KJ/KG        -4703.47 -8507.13 -13537.6 -19534.5 -26034.2 -32759.6 -40142.7 -48735.6
 S, KJ/(KG)(K)     7.0398   7.3466   7.6708   7.9807   8.2749   8.5602   8.8414   9.1170

 M, (1/n)          28.850   28.851   28.852   28.827   28.606   28.003   27.080   26.055
 (dLV/dLP)t      -1.00000 -1.00001 -1.00005 -1.00058 -1.00445 -1.01393 -1.02497 -1.03170
 (dLV/dLT)p        1.0000   0.9999   1.0001   1.0102   1.0689   1.1752   1.2598   1.2915
 Cp, KJ/(KG)(K)    1.0902   1.2072   1.3329   1.5120   1.8182   2.1524   2.3157   2.3934
 GAMMAs            1.3593   1.3135   1.2758   1.2408   1.2168   1.2144   1.2277   1.2356
 SON VEL,M/SEC      535.7    704.3    863.9   1009.5   1144.0   1281.6   1435.1   1599.2

 P5/P2              3.329    5.029    6.174    6.983    7.609    8.176    8.782    9.449
 T5/T2              1.454    1.667    1.764    1.789    1.765    1.721    1.701    1.727
 M5/M2             1.0000   1.0000   1.0001   0.9992   0.9915   0.9713   0.9435   0.9189
 RHO5/RHO2         2.2902   3.0163   3.5011   3.8994   4.2743   4.6158   4.8713   5.0276
 U5+V2,M/SEC       245.91   522.09   790.99  1062.03  1339.74  1622.89  1906.41  2187.11

 MOLE FRACTIONS

 *N              5.682-32 2.898-17 1.132-10 3.005 -7 2.588 -5 4.021 -4 2.822 -3 1.307 -2
 *NO             5.6547-7 4.2329-4 8.2072-3 3.6938-2 8.0138-2 1.1537-1 1.2982-1 1.2316-1
 NO2             1.5212-6 3.2034-5 1.4502-4 3.3099-4 4.9870-4 5.5655-4 4.8573-4 3.4563-4
 NO3             1.245-13 8.536-11 2.319 -9 1.497 -8 4.145 -8 6.396 -8 6.287 -8 4.263 -8
 *N2             7.9000-1 7.8978-1 7.8586-1 7.7070-1 7.4291-1 7.0848-1 6.7474-1 6.4490-1
 N2O             2.692-10 2.028 -7 4.973 -6 2.966 -5 8.425 -5 1.551 -4 2.205 -4 2.631 -4
 N2O3            7.551-16 3.579-12 2.696-10 3.275 -9 1.394 -8 2.969 -8 3.831 -8 3.324 -8
 N2O4            3.854-16 1.656-14 1.931-13 1.004-12 2.726-12 4.240-12 3.992-12 2.412-12
 N2O5            1.041-18 1.009-16 1.913-15 1.358-14 4.413-14 7.288-14 6.482-14 3.318-14
 N3              8.551-35 8.662-21 2.138-14 5.384-11 5.115 -9 9.250 -8 7.676 -7 4.202 -6
 *O              2.883-16 1.346 -8 3.525 -5 1.972 -3 1.747 -2 5.906 -2 1.206 -1 1.813 -1
 *O2             2.1000-1 2.0976-1 2.0574-1 1.9003-1 1.5887-1 1.1596-1 7.1252-2 3.6894-2
 O3              7.112-15 4.115-10 6.781 -8 1.119 -6 6.105 -6 1.642 -5 2.589 -5 2.620 -5

  * THERMODYNAMIC PROPERTIES FITTED TO 20000.K



