
 *******************************************************************************

         NASA-GLENN CHEMICAL EQUILIBRIUM PROGRAM CEA2, MAY 21, 2004
                   BY  BONNIE MCBRIDE AND SANFORD GORDON
      REFS: NASA RP-1311, PART I, 1994 AND NASA RP-1311, PART II, 1996

 *******************************************************************************



 prob
 ions shock inc ref eq u1=3140,3412,3708,4029,4378,4757 t,k=300,300,300,300,300,3
 00 p,bar=1,1,1,1,1,1
 react
   name=Air moles=1 t,k=300
 output
      trace=1e-16 siunits short
 end




                         SHOCK WAVE PARAMETERS ASSUMING

                 EQUILIBRIUM COMPOSITION FOR INCIDENT SHOCKED CONDITIONS


 CASE =                

             REACTANT                       MOLES         ENERGY      TEMP
                                                         KJ/KG-MOL      K
 NAME        Air                          1.0000000       -71.689    300.000

 O/F=    0.00000  %FUEL=  0.000000  R,EQ.RATIO= 0.001521  PHI,EQ.RATIO= 0.000000

 INITIAL GAS (1)
 MACH NUMBER1      9.0435   9.8269  10.6794  11.6039  12.6090  13.7006
 U1, M/SEC        3140.00  3412.00  3708.00  4029.00  4378.00  4757.00
 P, BAR            1.0000   1.0000   1.0000   1.0000   1.0000   1.0000
 T, K              300.00   300.00   300.00   300.00   300.00   300.00
 RHO, KG/CU M    1.1612 0 1.1612 0 1.1612 0 1.1612 0 1.1612 0 1.1612 0
 H, KJ/KG         -2.4750  -2.4750  -2.4750  -2.4750  -2.4750  -2.4750
 U, KJ/KG         -88.591  -88.591  -88.591  -88.591  -88.591  -88.591
 G, KJ/KG        -2063.60 -2063.60 -2063.60 -2063.60 -2063.60 -2063.60
 S, KJ/(KG)(K)     6.8704   6.8704   6.8704   6.8704   6.8704   6.8704

 M, (1/n)          28.965   28.965   28.965   28.965   28.965   28.965
 Cp, KJ/(KG)(K)    1.0048   1.0048   1.0048   1.0048   1.0048   1.0048
 GAMMAs            1.3999   1.3999   1.3999   1.3999   1.3999   1.3999
 SON VEL,M/SEC      347.2    347.2    347.2    347.2    347.2    347.2

 SHOCKED GAS (5)--REFLECTED--EQUILIBRIUM
 U5, M/SEC         545.59   585.61   624.20   660.11   695.02   731.66
 P, BAR            954.52  1193.99  1482.47  1816.71  2195.19  2634.31
 T, K             6549.06  7390.22  8248.84  9081.10  9893.31 10715.02
 RHO, KG/CU M    4.5736e1 4.9211e1 5.2991e1 5.6852e1 6.0439e1 6.3807e1
 H, KJ/KG         10466.5  12414.9  14692.3  17330.0  20397.2  23991.1
 U, KJ/KG         8379.48  9988.64  11894.7  14134.5  16765.1  19862.5
 G, KJ/KG        -49064.4 -56293.6 -63804.7 -71211.8 -78588.1 -86217.0
 S, KJ/(KG)(K)     9.0900   9.2972   9.5161   9.7501  10.0053  10.2854

 M, (1/n)          26.091   25.325   24.516   23.628   22.648   21.579
 (dLV/dLP)t      -1.03195 -1.03581 -1.04279 -1.05372 -1.06753 -1.08253
 (dLV/dLT)p        1.2932   1.3323   1.4227   1.5550   1.7048   1.8476
 Cp, KJ/(KG)(K)    2.3913   2.6543   3.1833   3.8914   4.6656   5.4022
 GAMMAs            1.2360   1.2251   1.2090   1.1975   1.1921   1.1918
 SON VEL,M/SEC     1606.1   1724.1   1839.1   1956.2   2080.8   2218.2

 P5/P2              9.461    9.963   10.420   10.775   11.001   11.164
 T5/T2              1.729    1.760    1.776    1.762    1.717    1.655
 M5/M2             0.9176   0.9051   0.8960   0.8876   0.8771   0.8618
 RHO5/RHO2         5.0215   5.1222   5.2562   5.4270   5.6190   5.8138
 U5+V2,M/SEC      2194.08  2413.99  2656.70  2922.28  3210.33  3522.02
 V2, M/SEC        2739.67  2999.60  3280.90  3582.39  3905.35  4253.68


 MOLE FRACTIONS

 *e-             4.6199-5 1.1995-4 2.5406-4 4.5495-4 7.3788-4 1.1459-3
 *Ar             8.4357-3 8.1881-3 7.9263-3 7.6390-3 7.3209-3 6.9729-3
 *Ar+            1.8018-9 1.7660-8 1.1336-7 4.8604-7 1.5465-6 4.0001-6
 *C              9.1094-8 6.4135-7 3.0728-6 1.0018-5 2.3980-5 4.4965-5
 *C+             6.476-12 1.810-10 2.688 -9 2.135 -8 1.037 -7 3.459 -7
 *C-             1.714-11 2.206-10 1.687 -9 7.924 -9 2.584 -8 6.493 -8
 *CN             3.5809-7 1.5774-6 5.2224-6 1.2752-5 2.3970-5 3.6096-5
 *CN+            6.423-13 2.011-11 3.303-10 2.840 -9 1.459 -8 5.026 -8
 CN-             2.0990-9 9.5815-9 3.1687-8 7.6490-8 1.4330-7 2.1993-7
 CNN             2.813-10 2.066 -9 1.035 -8 3.478 -8 8.350 -8 1.520 -7
 *CO             2.7211-4 2.6909-4 2.5713-4 2.3413-4 1.9856-4 1.5358-4
 *CO+            4.701-10 3.351 -9 1.633 -8 5.428 -8 1.309 -7 2.416 -7
 *CO2            1.4644-5 7.3174-6 4.0262-6 2.4083-6 1.4721-6 8.7182-7
 *CO2+           1.883-10 6.262-10 1.610 -9 3.207 -9 5.076 -9 6.510 -9
 *C2             1.576-13 2.696-12 2.707-11 1.549-10 5.493-10 1.306 -9
 *C2+            6.542-18 5.561-16 2.075-14 3.332-13 2.683-12 1.245-11
 C2-             6.458-16 1.287-14 1.429-13 8.818-13 3.361-12 8.732-12
 CCN             6.494-15 1.161-13 1.207-12 7.051-12 2.506-11 5.856-11
 CNC             4.941-14 6.882-13 5.840-12 2.903-11 9.043-11 1.885-10
 OCCN            1.053-12 4.643-12 1.534-11 3.632-11 6.205-11 7.765-11
 C2N2            6.986-14 5.429-13 2.932-12 1.031-11 2.421-11 3.933-11
 C2O             5.103-12 2.458-11 8.688-11 2.176-10 3.936-10 5.258-10
 *C3             3.686-19 1.252-17 2.263-16 2.029-15 9.754-15 2.727-14
 C3O2            6.620-18 2.451-17 7.047-17 1.469-16 2.150-16 2.173-16
 *N              1.4098-2 3.5221-2 7.2652-2 1.2554-1 1.9099-1 2.6615-1
 *N+             1.0473-8 2.0173-7 2.2004-6 1.4049-5 6.0643-5 1.9950-4
 *N-             5.1034-7 3.0330-6 1.2276-5 3.5747-5 8.3694-5 1.7263-4
 NCO             1.4006-7 2.7086-7 4.4994-7 6.3342-7 7.5707-7 7.7099-7
 *NO             1.2136-1 1.0834-1 9.4594-2 8.2295-2 7.1331-2 6.1296-2
 *NO+            8.3824-5 1.9938-4 3.9086-4 6.4193-4 9.1759-4 1.1743-3
 NO2             3.3336-4 2.4102-4 1.7694-4 1.3531-4 1.0621-4 8.4273-5
 NO2-            2.2386-7 2.2793-7 2.1453-7 1.9776-7 1.8211-7 1.6970-7
 NO3             4.0669-8 2.6439-8 1.7321-8 1.1986-8 8.6140-9 6.3100-9
 NO3-            2.184-10 1.544-10 1.063-10 7.650-11 5.759-11 4.522-11
 *N2             6.3515-1 6.1041-1 5.7662-1 5.3219-1 4.7819-1 4.1635-1
 *N2+            1.0398-7 1.0582-6 7.0418-6 3.0870-5 9.8421-5 2.4872-4
 *N2-            4.0295-6 1.2898-5 3.1685-5 6.1956-5 1.0364-4 1.5753-4
 NCN             1.3880-9 7.7020-9 3.0713-8 8.6189-8 1.7863-7 2.8656-7
 N2O             2.6031-4 2.7354-4 2.7600-4 2.6963-4 2.5450-4 2.3160-4
 N2O+            1.1783-8 6.8039-8 2.7633-7 8.0622-7 1.8200-6 3.3844-6
 N2O3            3.1851-8 2.4477-8 1.8554-8 1.4432-8 1.1324-8 8.8272-9
 N2O4            2.251-12 1.315-12 7.876-13 5.095-13 3.448-13 2.376-13
 N2O5            3.047-14 1.516-14 7.844-15 4.515-15 2.779-15 1.769-15
 N3              4.4904-6 1.2574-5 2.8499-5 5.2401-5 8.1527-5 1.1151-4
 *O              1.8460-1 2.1607-1 2.3416-1 2.4203-1 2.4352-1 2.4097-1
 *O+             1.4368-7 1.0884-6 5.4628-6 1.8975-5 5.0602-5 1.1248-4
 *O-             3.0817-5 6.3938-5 1.0796-4 1.5787-4 2.1335-4 2.7959-4
 *O2             3.5284-2 2.0533-2 1.2455-2 8.1442-3 5.6466-3 4.0630-3
 *O2+            7.8202-7 2.1069-6 4.5210-6 8.0747-6 1.2624-5 1.7903-5
 O2-             3.0965-6 3.8772-6 4.2749-6 4.4594-6 4.5776-6 4.7457-6
 O3              2.5767-5 2.1586-5 1.7561-5 1.4631-5 1.2485-5 1.0858-5

  * THERMODYNAMIC PROPERTIES FITTED TO 20000.K



