
 *******************************************************************************

         NASA-GLENN CHEMICAL EQUILIBRIUM PROGRAM CEA2, MAY 21, 2004
                   BY  BONNIE MCBRIDE AND SANFORD GORDON
      REFS: NASA RP-1311, PART I, 1994 AND NASA RP-1311, PART II, 1996

 *******************************************************************************



 problem    ions
       shock  inc  eq  u1=2660,2890,3140,3412,3708,4029,4378,4757, t,k=300,300,30
 0,300,300,300,300,300,  p,bar=1,1,1,1,1,1,1,1,
 react
   name=Air moles=1 t,k=300
 output
      trace=1e-16 siunits short
 end




                         SHOCK WAVE PARAMETERS ASSUMING

                 EQUILIBRIUM COMPOSITION FOR INCIDENT SHOCKED CONDITIONS


 CASE =                

             REACTANT                       MOLES         ENERGY      TEMP
                                                         KJ/KG-MOL      K
 NAME        Air                          1.0000000       -71.689    300.000

 O/F=    0.00000  %FUEL=  0.000000  R,EQ.RATIO= 0.001521  PHI,EQ.RATIO= 0.000000

 INITIAL GAS (1)
 MACH NUMBER1      7.6610   8.3235   9.0435   9.8269  10.6794  11.6039  12.6090  13.7006
 U1, M/SEC        2660.00  2890.00  3140.00  3412.00  3708.00  4029.00  4378.00  4757.00
 P, BAR            1.0000   1.0000   1.0000   1.0000   1.0000   1.0000   1.0000   1.0000
 T, K              300.00   300.00   300.00   300.00   300.00   300.00   300.00   300.00
 RHO, KG/CU M    1.1612 0 1.1612 0 1.1612 0 1.1612 0 1.1612 0 1.1612 0 1.1612 0 1.1612 0
 H, KJ/KG         -2.4750  -2.4750  -2.4750  -2.4750  -2.4750  -2.4750  -2.4750  -2.4750
 U, KJ/KG         -88.591  -88.591  -88.591  -88.591  -88.591  -88.591  -88.591  -88.591
 G, KJ/KG        -2063.60 -2063.60 -2063.60 -2063.60 -2063.60 -2063.60 -2063.60 -2063.60
 S, KJ/(KG)(K)     6.8704   6.8704   6.8704   6.8704   6.8704   6.8704   6.8704   6.8704

 M, (1/n)          28.965   28.965   28.965   28.965   28.965   28.965   28.965   28.965
 Cp, KJ/(KG)(K)    1.0048   1.0048   1.0048   1.0048   1.0048   1.0048   1.0048   1.0048
 GAMMAs            1.3999   1.3999   1.3999   1.3999   1.3999   1.3999   1.3999   1.3999
 SON VEL,M/SEC      347.2    347.2    347.2    347.2    347.2    347.2    347.2    347.2

 SHOCKED GAS (2)--INCIDENT--EQUILIBRIUM
 U2, M/SEC         376.93   388.94   400.33   412.40   427.10   446.61   472.65   503.32
 P, BAR            71.521   84.934   100.90   119.85   142.27   168.61   199.54   235.97
 T, K             3031.03  3400.54  3788.33  4197.94  4644.19  5152.94  5761.45  6475.29
 RHO, KG/CU M    8.1949 0 8.6284 0 9.1081 0 9.6075 0 1.0082 1 1.0476 1 1.0756 1 1.0975 1
 H, KJ/KG         3464.29  4097.94  4847.19  5733.36  6780.95  8014.22  9469.27  11185.4
 U, KJ/KG         2591.54  3113.58  3739.43  4485.91  5369.76  6404.74  7614.10  9035.30
 G, KJ/KG        -21855.5 -24809.9 -27957.1 -31336.6 -35091.2 -39473.8 -44856.9 -51334.1
 S, KJ/(KG)(K)     8.3535   8.5010   8.6593   8.8305   9.0160   9.2157   9.4293   9.6551

 M, (1/n)          28.876   28.723   28.434   27.980   27.363   26.620   25.822   25.040
 (dLV/dLP)t      -1.00164 -1.00424 -1.00892 -1.01562 -1.02310 -1.02889 -1.03074 -1.03073
 (dLV/dLT)p        1.0315   1.0734   1.1384   1.2169   1.2867   1.3205   1.3113   1.3114
 Cp, KJ/(KG)(K)    1.6341   1.8489   2.1155   2.3772   2.5529   2.5782   2.5133   2.6421
 GAMMAs            1.2283   1.2138   1.2051   1.2041   1.2106   1.2230   1.2339   1.2276
 SON VEL,M/SEC     1035.4   1093.1   1155.4   1225.6   1307.1   1403.0   1513.0   1624.6

 P2/P1             71.521   84.934  100.896  119.848  142.271  168.606  199.544  235.974
 T2/T1             10.103   11.335   12.628   13.993   15.481   17.176   19.205   21.584
 M2/M1             0.9969   0.9916   0.9817   0.9660   0.9447   0.9190   0.8915   0.8645
 RHO2/RHO1         7.0571   7.4304   7.8435   8.2735   8.6819   9.0213   9.2627   9.4513
 V2, M/SEC        2283.07  2501.06  2739.67  2999.60  3280.90  3582.39  3905.35  4253.68

 MOLE FRACTIONS

 *e-             2.8841-9 2.6232-8 1.6080-7 7.3698-7 2.7829-6 9.3443-6 2.9302-5 8.2706-5
 *Ar             9.3361-3 9.2868-3 9.1933-3 9.0466-3 8.8469-3 8.6067-3 8.3486-3 8.0960-3
 *Ar+            4.786-19 4.200-17 1.865-15 4.899-14 9.150-13 1.431-11 2.122-10 2.761 -9
 *C              2.303-16 2.133-14 8.215-13 1.626-11 2.129-10 2.287 -9 2.345 -8 2.174 -7
 *C+             4.703-26 5.807-23 2.048-20 2.773-18 2.062-16 1.152-14 6.057-13 2.708-11
 *C-             1.986-23 8.776-21 1.202-18 6.828-17 2.209-15 5.282-14 1.113-12 1.914-11
 *CN             1.035-13 3.054-12 4.561-11 4.067-10 2.651 -9 1.503 -8 8.387 -8 4.446 -7
 *CN+            1.309-27 1.746-24 6.651-22 9.733-20 7.829-18 4.737-16 2.708-14 1.318-12
 CN-             6.586-17 3.150-15 6.721-14 7.823-13 6.214-12 4.038-11 2.422-10 1.290 -9
 CNN             2.914-19 2.289-17 7.857-16 1.438-14 1.781-13 1.835-12 1.820-11 1.646-10
 *CO             2.9550-5 7.6158-5 1.4170-4 2.0260-4 2.4367-4 2.6478-4 2.7170-4 2.6974-4
 *CO+            4.674-19 5.060-17 2.264-15 5.074-14 7.267-13 8.203-12 8.478-11 7.700-10
 *CO2            2.8847-4 2.4018-4 1.7145-4 1.0555-4 5.7681-5 2.8360-5 1.2543-5 5.3116-6
 *CO2+           5.110-17 1.669-15 2.702-14 2.474-13 1.532-12 7.439-12 3.131-11 1.136-10
 *C2             3.589-26 2.618-23 5.028-21 3.506-19 1.318-17 3.748-16 1.024-14 2.524-13
 C2-             7.004-30 9.444-27 2.921-24 2.974-22 1.519-20 5.522-19 1.818-17 5.061-16
 CCN             6.753-28 4.881-25 9.408-23 6.638-21 2.538-19 7.354-18 2.047-16 5.138-15
 CNC             6.315-26 2.749-23 3.463-21 1.698-19 4.697-18 1.007-16 2.097-15 4.007-14
 OCCN            2.165-20 1.255-18 2.865-17 3.167-16 2.229-15 1.256-14 6.631-14 3.271-13
 C2N2            4.769-23 4.704-21 1.741-19 3.052-18 3.444-17 3.264-16 3.144-15 2.984-14
 C2O             5.825-20 4.463-18 1.278-16 1.705-15 1.412-14 9.237-14 5.629-13 3.167-12
 *N              1.7432-6 1.2727-5 6.6594-5 2.7090-4 9.3461-4 2.9462-3 8.9480-3 2.5265-2
 *N+             4.194-21 1.605-18 2.430-16 1.813-14 8.545-13 3.167-11 1.084 -9 3.077 -8
 *N-             1.808-15 1.102-13 3.287-12 5.747-11 7.018-10 6.876 -9 5.912 -8 4.165 -7
 NCO             1.629-11 1.380-10 7.094-10 2.457 -9 6.570 -9 1.515 -8 3.239 -8 6.444 -8
 *NO             4.5282-2 6.3483-2 8.1367-2 9.6017-2 1.0477-1 1.0538-1 9.6928-2 8.2261-2
 *NO+            5.5854-9 4.5030-8 2.6111-7 1.1545-6 4.1968-6 1.3394-5 3.9336-5 1.0363-4
 NO2             2.0398-4 2.3824-4 2.5930-4 2.6010-4 2.3632-4 1.8928-4 1.2990-4 7.8870-5
 NO2-            6.890-10 2.408 -9 6.278 -9 1.283 -8 2.115 -8 2.816 -8 2.976 -8 2.542 -8
 NO3             6.0062-9 8.9996-9 1.1883-8 1.3637-8 1.3292-8 1.0572-8 6.5615-9 3.3177-9
 NO3-            3.327-12 7.891-12 1.470-11 2.197-11 2.628-11 2.435-11 1.667-11 8.782-12
 *N2             7.5567-1 7.4242-1 7.2563-1 7.0595-1 6.8460-1 6.6326-1 6.4298-1 6.2109-1
 *N2+            3.416-17 2.767-15 1.155-13 2.902-12 5.269-11 8.150-10 1.217 -8 1.618 -7
 *N2-            5.452-12 8.519-11 8.159-10 5.432 -9 2.824 -8 1.254 -7 5.025 -7 1.736 -6
 NCN             2.474-17 1.093-15 2.316-14 2.804-13 2.406-12 1.762-11 1.257-10 8.353-10
 N2O             2.1340-5 3.3125-5 4.7180-5 6.2019-5 7.5620-5 8.5454-5 8.9078-5 8.6193-5
 N2O+            9.302-17 3.844-15 8.951-14 1.320-12 1.418-11 1.251-10 9.878-10 6.617 -9
 N2O3            8.074-10 1.439 -9 2.228 -9 2.965 -9 3.329 -9 3.044 -9 2.178 -9 1.268 -9
 N2O4            1.216-13 1.740-13 2.216-13 2.435-13 2.210-13 1.556-13 7.960-14 3.146-14
 N2O5            9.570-16 1.452-15 1.913-15 2.101-15 1.820-15 1.147-15 4.839-16 1.478-16
 N3              9.665-11 7.127-10 3.851 -9 1.643 -8 6.001 -8 2.012 -7 6.516 -7 1.958 -6
 *O              6.3563-3 1.6891-2 3.6770-2 6.7860-2 1.0977-1 1.5898-1 2.0799-1 2.4545-1
 *O+             1.089-16 1.027-14 4.663-13 1.193-11 2.055-10 2.780 -9 3.289 -8 3.189 -7
 *O-             7.024-10 8.224 -9 5.965 -8 2.991 -7 1.140 -6 3.523 -6 9.099 -6 1.923 -5
 *O2             1.8281-1 1.6732-1 1.4635-1 1.2022-1 9.0454-2 6.0212-2 3.4210-2 1.7181-2
 *O2+            2.371-12 4.023-11 4.240-10 3.008 -9 1.577 -8 6.588 -8 2.297 -7 6.572 -7
 O2-             1.3035-9 8.1142-9 3.3973-8 1.0311-7 2.3972-7 4.3657-7 6.2057-7 6.9377-7
 O3              9.5358-7 1.9523-6 3.4676-6 5.2989-6 6.8612-6 7.2887-6 6.0994-6 4.1340-6

  * THERMODYNAMIC PROPERTIES FITTED TO 20000.K



