
 *******************************************************************************

         NASA-GLENN CHEMICAL EQUILIBRIUM PROGRAM CEA2, MAY 21, 2004
                   BY  BONNIE MCBRIDE AND SANFORD GORDON
      REFS: NASA RP-1311, PART I, 1994 AND NASA RP-1311, PART II, 1996

 *******************************************************************************



 prob
 ions shock inc ref eq u1=5169,5617,6103,6632,7206,7830 t,k=300,300,300,300,300,3
 00 p,bar=1,1,1,1,1,1
 react
   name=Air moles=1 t,k=300
 output
      trace=1e-16 siunits short
 end




                         SHOCK WAVE PARAMETERS ASSUMING

                 EQUILIBRIUM COMPOSITION FOR INCIDENT SHOCKED CONDITIONS


 CASE =                

             REACTANT                       MOLES         ENERGY      TEMP
                                                         KJ/KG-MOL      K
 NAME        Air                          1.0000000       -71.689    300.000

 O/F=    0.00000  %FUEL=  0.000000  R,EQ.RATIO= 0.001521  PHI,EQ.RATIO= 0.000000

 INITIAL GAS (1)
 MACH NUMBER1     14.8872  16.1775  17.5772  19.1008  20.7539  22.5511
 U1, M/SEC        5169.00  5617.00  6103.00  6632.00  7206.00  7830.00
 P, BAR            1.0000   1.0000   1.0000   1.0000   1.0000   1.0000
 T, K              300.00   300.00   300.00   300.00   300.00   300.00
 RHO, KG/CU M    1.1612 0 1.1612 0 1.1612 0 1.1612 0 1.1612 0 1.1612 0
 H, KJ/KG         -2.4750  -2.4750  -2.4750  -2.4750  -2.4750  -2.4750
 U, KJ/KG         -88.591  -88.591  -88.591  -88.591  -88.591  -88.591
 G, KJ/KG        -2063.60 -2063.60 -2063.60 -2063.60 -2063.60 -2063.60
 S, KJ/(KG)(K)     6.8704   6.8704   6.8704   6.8704   6.8704   6.8704

 M, (1/n)          28.965   28.965   28.965   28.965   28.965   28.965
 Cp, KJ/(KG)(K)    1.0048   1.0048   1.0048   1.0048   1.0048   1.0048
 GAMMAs            1.3999   1.3999   1.3999   1.3999   1.3999   1.3999
 SON VEL,M/SEC      347.2    347.2    347.2    347.2    347.2    347.2

 SHOCKED GAS (5)--REFLECTED--EQUILIBRIUM
 U5, M/SEC         773.71   824.79   888.55   970.83  1079.06  1216.83
 P, BAR           3188.52  3913.16  4842.42  6011.95  7453.82  9196.94
 T, K            11597.45 12597.14 13783.51 15288.32 17333.56 20146.61
 RHO, KG/CU M    6.7563e1 7.1841e1 7.6078e1 7.9490e1 8.1286e1 8.1300e1
 H, KJ/KG         28270.1  33405.7  39559.0  46967.6  55892.7  66655.0
 U, KJ/KG         23550.7  27958.7  33193.9  39404.4  46722.8  55342.7
 G, KJ/KG        -94585.5-104307.5-116246.6-132072.0-154702.8-187414.8
 S, KJ/(KG)(K)    10.5933  10.9321  11.3038  11.7109  12.1496  12.6110

 M, (1/n)          20.432   19.229   18.005   16.807   15.717   14.808
 (dLV/dLP)t      -1.09666 -1.10693 -1.10937 -1.10023 -1.08040 -1.06242
 (dLV/dLT)p        1.9575   2.0039   1.9566   1.8019   1.5839   1.4315
 Cp, KJ/(KG)(K)    5.9862   6.2722   6.1134   5.4527   4.5386   4.0053
 GAMMAs            1.1959   1.2047   1.2192   1.2412   1.2690   1.2901
 SON VEL,M/SEC     2375.7   2561.6   2785.8   3063.9   3411.3   3820.2

 P5/P2             11.416   11.821   12.338   12.918   13.516   14.084
 T5/T2              1.605    1.585    1.596    1.641    1.732    1.872
 M5/M2             0.8425   0.8226   0.8042   0.7893   0.7811   0.7835
 RHO5/RHO2         5.9926   6.1349   6.2167   6.2114   6.0964   5.8931
 U5+V2,M/SEC      3862.89  4235.21  4635.34  5059.39  5499.35  5954.10
 V2, M/SEC        4636.60  5060.00  5523.89  6030.22  6578.42  7170.93
 

 MOLE FRACTIONS

 *e-             1.7756-3 2.8179-3 4.6590-3 8.2135-3 1.5788-2 3.2221-2
 *Ar             6.5971-3 6.1982-3 5.7838-3 5.3578-3 4.9177-3 4.4262-3
 *Ar+            9.0488-6 1.8830-5 3.7636-5 7.6258-5 1.6385-4 3.6143-4
 *C              6.9525-5 9.2516-5 1.1048-4 1.2282-4 1.2968-4 1.3003-4
 *C+             8.6672-7 1.7538-6 3.0779-6 5.0462-6 8.1706-6 1.3123-5
 *C-             1.3674-7 2.5536-7 4.3947-7 7.1863-7 1.1232-6 1.6085-6
 *CN             4.5024-5 4.7678-5 4.3637-5 3.4514-5 2.3002-5 1.2816-5
 *CN+            1.2751-7 2.5439-7 4.2119-7 6.0475-7 7.6202-7 8.2554-7
 CN-             2.8919-7 3.3386-7 3.3998-7 2.9960-7 2.1714-7 1.2445-7
 CNN             2.2052-7 2.6189-7 2.5583-7 2.0062-7 1.1867-7 5.1474-8
 *CO             1.0694-4 6.7119-5 3.8373-5 1.9964-5 9.3742-6 4.0742-6
 *CO+            3.5734-7 4.4169-7 4.7659-7 4.6645-7 4.2208-7 3.5359-7
 *CO2            4.8449-7 2.4908-7 1.1753-7 4.9664-8 1.8188-8 5.9216-9
 *CO2+           6.9328-9 6.2773-9 4.9539-9 3.4577-9 2.1340-9 1.1860-9
 *C2             2.2327-9 2.9157-9 3.0794-9 2.7349-9 2.0478-9 1.2822-9
 *C2+            3.738-11 7.985-11 1.325-10 1.843-10 2.233-10 2.327-10
 C2-             1.686-11 2.581-11 3.290-11 3.589-11 3.315-11 2.519-11
 CCN             9.648-11 1.182-10 1.118-10 8.262-11 4.599-11 1.904-11
 CNC             2.796-10 3.092-10 2.641-10 1.751-10 8.656-11 3.160-11
 OCCN            7.296-11 5.256-11 2.937-11 1.240-11 3.701-12 7.816-13
 C2N2            4.596-11 3.971-11 2.567-11 1.204-11 3.784-12 7.925-13
 C2O             5.341-10 4.257-10 2.747-10 1.443-10 6.017-11 2.010-11
 *C3             4.811-14 5.764-14 5.031-14 3.329-14 1.648-14 6.101-15
 C3O2            1.537-16 7.787-17 2.894-17 7.739-18 1.398-18 1.751-19
 *N              3.4870-1 4.3548-1 5.2166-1 6.0013-1 6.5740-1 6.7480-1
 *N+             5.4690-4 1.3234-3 2.9545-3 6.3920-3 1.3871-2 2.9531-2
 *N-             3.3590-4 6.3729-4 1.1857-3 2.1612-3 3.7847-3 6.0034-3
 NCO             6.7448-7 5.0894-7 3.2978-7 1.7805-7 7.5714-8 2.5186-8
 *NO             5.1918-2 4.2913-2 3.4021-2 2.5108-2 1.6567-2 9.6056-3
 *NO+            1.3731-3 1.4870-3 1.5102-3 1.4556-3 1.3467-3 1.2150-3
 NO2             6.7075-5 5.2764-5 3.9882-5 2.7752-5 1.6887-5 8.8693-6
 NO2-            1.6252-7 1.5881-7 1.5278-7 1.3711-7 1.0715-7 6.9554-8
 NO3             4.681 -9 3.451 -9 2.428 -9 1.537 -9 8.146-10 3.536-10
 NO3-            3.734-11 3.191-11 2.686-11 2.073-11 1.345-11 6.986-12
 *N2             3.4815-1 2.7568-1 2.0222-1 1.3213-1 7.3112-2 3.4159-2
 *N2+            5.3187-4 9.9830-4 1.6754-3 2.5406-3 3.4340-3 3.9921-3
 *N2-            2.2743-4 3.1519-4 4.1038-4 4.8109-4 4.7426-4 3.7035-4
 NCN             3.7023-7 3.9306-7 3.4318-7 2.3921-7 1.2450-7 4.7210-8
 N2O             2.0292-4 1.6861-4 1.2847-4 8.4784-5 4.4916-5 1.8655-5
 N2O+            5.4481-6 7.7560-6 9.7659-6 1.0723-5 9.9015-6 7.5056-6
 N2O3            6.829 -9 5.123 -9 3.528 -9 2.049 -9 9.042-10 2.932-10
 N2O4            1.658-13 1.138-13 7.191-14 3.785-14 1.473-14 4.092-15
 N2O5            1.158-15 7.538-16 4.518-16 2.226-16 7.887-17 1.931-17
 N3              1.3778-4 1.5353-4 1.4966-4 1.2017-4 7.2557-5 3.1562-5
 *O              2.3559-1 2.2838-1 2.2027-1 2.1204-1 2.0405-1 1.9525-1
 *O+             2.2186-4 4.0642-4 7.2125-4 1.3084-3 2.5549-3 5.3491-3
 *O-             3.6865-4 4.9748-4 6.8746-4 9.7130-4 1.3910-3 1.9374-3
 *O2             2.9862-3 2.2103-3 1.6194-3 1.1450-3 7.5744-4 4.6082-4
 *O2+            2.3752-5 3.0133-5 3.7250-5 4.5892-5 5.7363-5 7.1851-5
 O2-             5.0906-6 5.6788-6 6.4888-6 7.4299-6 8.2826-6 8.6233-6
 O3              9.6737-6 8.8019-6 8.0534-6 7.2653-6 6.3364-6 5.2891-6

  * THERMODYNAMIC PROPERTIES FITTED TO 20000.K



