
 *******************************************************************************

         NASA-GLENN CHEMICAL EQUILIBRIUM PROGRAM CEA2, MAY 21, 2004
                   BY  BONNIE MCBRIDE AND SANFORD GORDON
      REFS: NASA RP-1311, PART I, 1994 AND NASA RP-1311, PART II, 1996

 *******************************************************************************



 prob
 shock inc eq u1=1369,1487,1616,1756,1908,2073,2253,2448 t,k=300,300,300,300,300,
 300,300,300 p,bar=1,1,1,1,1,1,1,1
 react
   name=Air moles=1 t,k=300
 output
      trace=1e-16 siunits short
 end




                         SHOCK WAVE PARAMETERS ASSUMING

                 EQUILIBRIUM COMPOSITION FOR INCIDENT SHOCKED CONDITIONS


 CASE =                

             REACTANT                       MOLES         ENERGY      TEMP
                                                         KJ/KG-MOL      K
 NAME        Air                          1.0000000       -71.689    300.000

 O/F=    0.00000  %FUEL=  0.000000  R,EQ.RATIO= 0.001521  PHI,EQ.RATIO= 0.000000

 INITIAL GAS (1)
 MACH NUMBER1      3.9428   4.2827   4.6542   5.0574   5.4952   5.9704   6.4888   7.0505
 U1, M/SEC        1369.00  1487.00  1616.00  1756.00  1908.00  2073.00  2253.00  2448.00
 P, BAR            1.0000   1.0000   1.0000   1.0000   1.0000   1.0000   1.0000   1.0000
 T, K              300.00   300.00   300.00   300.00   300.00   300.00   300.00   300.00
 RHO, KG/CU M    1.1612 0 1.1612 0 1.1612 0 1.1612 0 1.1612 0 1.1612 0 1.1612 0 1.1612 0
 H, KJ/KG         -2.4750  -2.4750  -2.4750  -2.4750  -2.4750  -2.4750  -2.4750  -2.4750
 U, KJ/KG         -88.591  -88.591  -88.591  -88.591  -88.591  -88.591  -88.591  -88.591
 G, KJ/KG        -2063.60 -2063.60 -2063.60 -2063.60 -2063.60 -2063.60 -2063.60 -2063.60
 S, KJ/(KG)(K)     6.8704   6.8704   6.8704   6.8704   6.8704   6.8704   6.8704   6.8704

 M, (1/n)          28.965   28.965   28.965   28.965   28.965   28.965   28.965   28.965
 Cp, KJ/(KG)(K)    1.0048   1.0048   1.0048   1.0048   1.0048   1.0048   1.0048   1.0048
 GAMMAs            1.3999   1.3999   1.3999   1.3999   1.3999   1.3999   1.3999   1.3999
 SON VEL,M/SEC      347.2    347.2    347.2    347.2    347.2    347.2    347.2    347.2

 SHOCKED GAS (2)--INCIDENT--EQUILIBRIUM
 U2, M/SEC         282.38   291.12   301.10   312.17   324.22   337.05   350.46   363.94
 P, BAR            18.274   21.650   25.675   30.441   36.091   42.788   50.775   60.243
 T, K             1130.82  1271.56  1435.15  1623.55  1839.88  2087.08  2369.06  2684.52
 RHO, KG/CU M    5.6297 0 5.9315 0 6.2324 0 6.5320 0 6.8337 0 7.1421 0 7.4652 0 7.8109 0
 H, KJ/KG          894.74  1060.74  1257.92  1490.57  1765.20  2089.39  2474.12  2927.65
 U, KJ/KG          570.13   695.73   845.97  1024.53  1237.07  1490.29  1793.96  2156.38
 G, KJ/KG        -7523.76 -8519.50 -9693.92 -11066.9 -12667.6 -14525.5 -16678.6 -19125.8
 S, KJ/(KG)(K)     7.4446   7.5342   7.6312   7.7345   7.8444   7.9608   8.0845   8.2150

 M, (1/n)          28.965   28.965   28.966   28.966   28.966   28.965   28.960   28.940
 (dLV/dLP)t      -1.00000 -1.00000 -1.00001 -1.00001 -1.00002 -1.00005 -1.00015 -1.00052
 (dLV/dLT)p        1.0000   1.0000   1.0000   1.0000   1.0000   1.0005   1.0029   1.0108
 Cp, KJ/(KG)(K)    1.1671   1.1916   1.2190   1.2507   1.2886   1.3352   1.3969   1.4885
 GAMMAs            1.3262   1.3173   1.3080   1.2978   1.2866   1.2742   1.2603   1.2448
 SON VEL,M/SEC      656.1    693.4    734.0    777.7    824.3    873.7    925.9    979.8

 P2/P1             18.274   21.650   25.675   30.441   36.091   42.788   50.775   60.243
 T2/T1              3.769    4.239    4.784    5.412    6.133    6.957    7.897    8.948
 M2/M1             1.0000   1.0000   1.0000   1.0000   1.0000   1.0000   0.9998   0.9991
 RHO2/RHO1         4.8481   5.1079   5.3671   5.6251   5.8849   6.1505   6.4287   6.7264
 V2, M/SEC        1086.62  1195.88  1314.90  1443.83  1583.78  1735.95  1902.54  2084.06

 MOLE FRACTIONS

 *Ar             9.3651-3 9.3651-3 9.3651-3 9.3652-3 9.3652-3 9.3650-3 9.3635-3 9.3568-3
 *CN             0.000  0 2.994-33 2.156-29 6.416-26 8.187-23 4.671-20 1.279-17 1.659-15
 *CO             5.046-13 1.279-11 2.436-10 3.421 -9 3.589 -8 2.853 -7 1.758 -6 8.299 -6
 *CO2            3.1900-4 3.1900-4 3.1900-4 3.1901-4 3.1897-4 3.1872-4 3.1719-4 3.1042-4
 *N              4.653-20 1.179-17 1.872-15 1.804-13 1.075-11 4.050-10 1.002 -8 1.618 -7
 NCO             8.488-27 4.237-24 1.258-21 2.146-19 2.148-17 1.293-15 4.885-14 1.139-12
 *NO             1.1095-4 3.2550-4 8.7205-4 2.1191-3 4.6836-3 9.4394-3 1.7439-2 2.9412-2
 NO2             1.1454-5 1.8565-5 2.9194-5 4.4366-5 6.5130-5 9.2232-5 1.2585-4 1.6433-4
 NO3             9.912-12 2.829-11 7.591-11 1.900-10 4.430-10 9.607-10 1.936 -9 3.579 -9
 *N2             7.8078-1 7.8068-1 7.8040-1 7.7977-1 7.7848-1 7.7607-1 7.7192-1 7.6536-1
 N2O             3.4711-8 1.0159-7 2.7614-7 6.9221-7 1.6034-6 3.4373-6 6.8474-6 1.2594-5
 N2O3            1.863-13 7.192-13 2.572-12 8.432-12 2.533-11 6.962-11 1.752-10 3.979-10
 N2O4            1.450-15 2.608-15 4.720-15 8.528-15 1.531-14 2.708-14 4.686-14 7.780-14
 N2O5            5.008-18 1.012-17 2.054-17 4.152-17 8.310-17 1.633-16 3.119-16 5.668-16
 N3              8.506-24 1.605-21 1.982-19 1.554-17 7.863-16 2.619-14 5.948-13 9.134-12
 *O              5.681-10 1.029 -8 1.457 -7 1.583 -6 1.333 -5 8.777 -5 4.605 -4 1.915 -3
 *O2             2.0941-1 2.0930-1 2.0901-1 2.0838-1 2.0707-1 2.0462-1 2.0036-1 1.9346-1
 O3              2.981-11 1.761-10 9.075-10 4.029 -9 1.549 -8 5.201 -8 1.548 -7 4.080 -7

  * THERMODYNAMIC PROPERTIES FITTED TO 20000.K



