
 *******************************************************************************

         NASA-GLENN CHEMICAL EQUILIBRIUM PROGRAM CEA2, MAY 21, 2004
                   BY  BONNIE MCBRIDE AND SANFORD GORDON
      REFS: NASA RP-1311, PART I, 1994 AND NASA RP-1311, PART II, 1996

 *******************************************************************************



 problem    ions
       shock  inc  eq  u1=10046,10916,11862, t,k=300,300,300,  p,bar=1,1,1,
 react
   name=Air moles=1 t,k=300
 output
      trace=1e-16 siunits short
 end




                         SHOCK WAVE PARAMETERS ASSUMING

                 EQUILIBRIUM COMPOSITION FOR INCIDENT SHOCKED CONDITIONS


 CASE =                

             REACTANT                       MOLES         ENERGY      TEMP
                                                         KJ/KG-MOL      K
 NAME        Air                          1.0000000       -71.689    300.000

 O/F=    0.00000  %FUEL=  0.000000  R,EQ.RATIO= 0.001521  PHI,EQ.RATIO= 0.000000

 INITIAL GAS (1)
 MACH NUMBER1     28.9334  31.4391  34.1636
 U1, M/SEC       10046.00 10916.00 11862.00
 P, BAR            1.0000   1.0000   1.0000
 T, K              300.00   300.00   300.00
 RHO, KG/CU M    1.1612 0 1.1612 0 1.1612 0
 H, KJ/KG         -2.4750  -2.4750  -2.4750
 U, KJ/KG         -88.591  -88.591  -88.591
 G, KJ/KG        -2063.60 -2063.60 -2063.60
 S, KJ/(KG)(K)     6.8704   6.8704   6.8704

 M, (1/n)          28.965   28.965   28.965
 Cp, KJ/(KG)(K)    1.0048   1.0048   1.0048
 GAMMAs            1.3999   1.3999   1.3999
 SON VEL,M/SEC      347.2    347.2    347.2

 SHOCKED GAS (2)--INCIDENT--EQUILIBRIUM
 U2, M/SEC         828.50   931.63  1049.22
 P, BAR           1076.31  1266.64  1490.43
 T, K            14163.11 16309.87 18931.71
 RHO, KG/CU M    1.4081 1 1.3606 1 1.3128 1
 H, KJ/KG         50115.4  59143.1  69800.6
 U, KJ/KG         42471.4  49833.9  58447.9
 G, KJ/KG       -131408.7-158117.8-192043.2
 S, KJ/(KG)(K)    12.8167  13.3208  13.8310

 M, (1/n)          15.406   14.567   13.865
 (dLV/dLP)t      -1.06261 -1.04194 -1.04333
 (dLV/dLT)p        1.5757   1.3776   1.4053
 Cp, KJ/(KG)(K)    5.0530   4.1983   4.5629
 GAMMAs            1.2540   1.2756   1.2759
 SON VEL,M/SEC     3096.1   3446.0   3805.9

 P2/P1           1076.306 1266.637 1490.427
 T2/T1             47.210   54.366   63.106
 M2/M1             0.5319   0.5029   0.4787
 RHO2/RHO1        12.1255  11.7172  11.3056
 V2, M/SEC        9217.50  9984.37 10812.78

 MOLE FRACTIONS

 *e-             1.2369-2 2.8069-2 5.9409-2
 *Ar             4.8984-3 4.4896-3 3.9576-3
 *Ar+            8.2551-5 2.2028-4 5.2530-4
 *C              1.3852-4 1.3525-4 1.2402-4
 *C+             8.9773-6 1.5291-5 2.3988-5
 *C-             2.9281-7 4.4561-7 5.7942-7
 *CN             1.3260-5 6.2907-6 2.7440-6
 *CN+            3.1540-7 3.3974-7 3.1492-7
 CN-             5.0938-8 2.6131-8 1.1463-8
 CNN             2.0654-8 7.2693-9 2.1692-9
 *CO             7.9408-6 2.5963-6 9.0203-7
 *CO+            2.4571-7 1.8946-7 1.4046-7
 *CO2            4.676 -9 1.033 -9 2.460-10
 *CO2+           4.739-10 2.088-10 9.251-11
 *C2             9.283-10 5.066-10 2.494-10
 *C2+            9.453-11 9.683-11 8.566-11
 C2-             5.014-12 3.391-12 1.965-12
 CCN             8.533-12 2.764-12 7.752-13
 CNC             1.957-11 5.501-12 1.353-12
 OCCN            3.913-13 5.432-14 6.950-15
 C2N2            4.597-13 6.270-14 7.490-15
 C2O             1.460-11 3.571-12 8.379-13
 *C3             3.578-15 9.980-16 2.465-16
 *N              6.8707-1 7.0658-1 6.7224-1
 *N+             9.6772-3 2.3745-2 5.0973-2
 *N-             8.4718-4 1.4930-3 2.1896-3
 NCO             1.8396-8 4.6729-9 1.1100-9
 *NO             8.0807-3 4.1239-3 2.0140-3
 *NO+            8.0504-4 6.2318-4 4.8961-4
 NO2             1.8963-6 7.9568-7 3.2303-7
 NO2-            3.7250-9 2.0524-9 1.0123-9
 NO3             2.291-11 7.483-12 2.332-12
 NO3-            1.279-13 5.127-14 1.860-14
 *N2             6.0633-2 2.2799-2 8.2297-3
 *N2+            1.3240-3 1.5510-3 1.5591-3
 *N2-            6.9174-5 5.1791-5 3.1800-5
 NCN             2.6832-8 8.0992-9 2.0984-9
 N2O             7.8764-6 2.6201-6 7.9295-7
 N2O+            1.4396-6 9.7623-7 5.8099-7
 N2O3            8.648-12 1.912-12 3.855-13
 N3              1.2662-5 4.6179-6 1.4011-6
 *O              2.1157-1 2.0142-1 1.8868-1
 *O+             1.7208-3 3.9595-3 8.7353-3
 *O-             3.5051-4 5.2035-4 7.0041-4
 *O2             2.9133-4 1.6309-4 8.9670-5
 *O2+            1.6274-5 2.0019-5 2.4165-5
 O2-             6.3574-7 6.3574-7 5.8591-7
 O3              3.1421-7 2.1742-7 1.5085-7

  * THERMODYNAMIC PROPERTIES FITTED TO 20000.K



