
 *******************************************************************************

         NASA-GLENN CHEMICAL EQUILIBRIUM PROGRAM CEA2, MAY 21, 2004
                   BY  BONNIE MCBRIDE AND SANFORD GORDON
      REFS: NASA RP-1311, PART I, 1994 AND NASA RP-1311, PART II, 1996

 *******************************************************************************



 prob
 shock inc eq u1=704,765,831,903,982,1067,1159,1260 t,k=300,300,300,300,300,300,3
 00,300 p,bar=1,1,1,1,1,1,1,1
 react
   name=Air moles=1 t,k=300
 output
      trace=1e-16 siunits short
 end




                         SHOCK WAVE PARAMETERS ASSUMING

                 EQUILIBRIUM COMPOSITION FOR INCIDENT SHOCKED CONDITIONS


 CASE =                

             REACTANT                       MOLES         ENERGY      TEMP
                                                         KJ/KG-MOL      K
 NAME        Air                          1.0000000       -71.689    300.000

 O/F=    0.00000  %FUEL=  0.000000  R,EQ.RATIO= 0.001521  PHI,EQ.RATIO= 0.000000

 INITIAL GAS (1)
 MACH NUMBER1      2.0276   2.2033   2.3934   2.6007   2.8282   3.0731   3.3380   3.6289
 U1, M/SEC         704.00   765.00   831.00   903.00   982.00  1067.00  1159.00  1260.00
 P, BAR            1.0000   1.0000   1.0000   1.0000   1.0000   1.0000   1.0000   1.0000
 T, K              300.00   300.00   300.00   300.00   300.00   300.00   300.00   300.00
 RHO, KG/CU M    1.1612 0 1.1612 0 1.1612 0 1.1612 0 1.1612 0 1.1612 0 1.1612 0 1.1612 0
 H, KJ/KG         -2.4750  -2.4750  -2.4750  -2.4750  -2.4750  -2.4750  -2.4750  -2.4750
 U, KJ/KG         -88.591  -88.591  -88.591  -88.591  -88.591  -88.591  -88.591  -88.591
 G, KJ/KG        -2063.60 -2063.60 -2063.60 -2063.60 -2063.60 -2063.60 -2063.60 -2063.60
 S, KJ/(KG)(K)     6.8704   6.8704   6.8704   6.8704   6.8704   6.8704   6.8704   6.8704

 M, (1/n)          28.965   28.965   28.965   28.965   28.965   28.965   28.965   28.965
 Cp, KJ/(KG)(K)    1.0048   1.0048   1.0048   1.0048   1.0048   1.0048   1.0048   1.0048
 GAMMAs            1.3999   1.3999   1.3999   1.3999   1.3999   1.3999   1.3999   1.3999
 SON VEL,M/SEC      347.2    347.2    347.2    347.2    347.2    347.2    347.2    347.2

 SHOCKED GAS (2)--INCIDENT--EQUILIBRIUM
 U2, M/SEC         258.33   256.42   256.05   257.13   259.62   263.42   268.47   274.83
 P, BAR            4.6434   5.5179   6.5482   7.7725   9.2375   10.957   12.985   15.414
 T, K              511.16   554.87   605.29   663.97   732.66   811.48   902.37  1008.67
 RHO, KG/CU M    3.1646 0 3.4643 0 3.7687 0 4.0781 0 4.3923 0 4.7037 0 5.0131 0 5.3238 0
 H, KJ/KG          211.97   257.26   310.03   372.17   445.99   532.08   633.13   753.56
 U, KJ/KG          65.239   97.985   136.28   181.58   235.67   299.14   374.10   464.02
 G, KJ/KG        -3350.93 -3630.00 -3955.81 -4339.57 -4794.41 -5322.87 -5940.11 -6671.57
 S, KJ/(KG)(K)     6.9702   7.0057   7.0476   7.0964   7.1526   7.2152   7.2844   7.3613

 M, (1/n)          28.965   28.965   28.965   28.965   28.965   28.965   28.965   28.965
 (dLV/dLP)t      -1.00000 -1.00000 -1.00000 -1.00000 -1.00000 -1.00000 -1.00000 -1.00000
 (dLV/dLT)p        1.0000   1.0000   1.0000   1.0000   1.0000   1.0000   1.0000   1.0000
 Cp, KJ/(KG)(K)    1.0317   1.0408   1.0522   1.0662   1.0828   1.1015   1.1218   1.1439
 GAMMAs            1.3855   1.3808   1.3751   1.3684   1.3607   1.3524   1.3439   1.3350
 SON VEL,M/SEC      450.9    469.0    488.8    510.7    535.0    561.3    590.0    621.7

 P2/P1              4.643    5.518    6.548    7.773    9.237   10.957   12.985   15.414
 T2/T1              1.704    1.850    2.018    2.213    2.442    2.705    3.008    3.362
 M2/M1             1.0000   1.0000   1.0000   1.0000   1.0000   1.0000   1.0000   1.0000
 RHO2/RHO1         2.7252   2.9833   3.2455   3.5119   3.7824   4.0506   4.3171   4.5846
 V2, M/SEC         445.67   508.58   574.95   645.87   722.38   803.58   890.53   985.17

 MOLE FRACTIONS

 *Ar             9.3650-3 9.3650-3 9.3650-3 9.3650-3 9.3650-3 9.3650-3 9.3650-3 9.3650-3
 *CO             1.371-28 2.416-26 3.716-24 4.961-22 5.612-20 4.721-18 2.969-16 1.447-14
 *CO2            3.1900-4 3.1900-4 3.1900-4 3.1900-4 3.1900-4 3.1900-4 3.1900-4 3.1900-4
 *NO             8.487-10 4.613 -9 2.401 -8 1.194 -7 5.634 -7 2.419 -6 9.465 -6 3.418 -5
 NO2             7.9228-8 1.5998-7 3.1734-7 6.1885-7 1.1847-6 2.1901-6 3.9179-6 6.8245-6
 NO3             2.519-16 1.102-15 4.665-15 1.915-14 7.606-14 2.820-13 9.804-13 3.236-12
 *N2             7.8084-1 7.8084-1 7.8084-1 7.8084-1 7.8084-1 7.8084-1 7.8083-1 7.8082-1
 N2O             4.521-13 2.223-12 1.052-11 4.792-11 2.091-10 8.411-10 3.128 -9 1.090 -8
 N2O3            2.463-19 1.613-18 1.016-17 6.169-17 3.599-16 1.928-15 9.529-15 4.416-14
 N2O4            1.513-17 2.642-17 4.613-17 8.097-17 1.435-16 2.538-16 4.502-16 8.077-16
 *O              9.178-24 8.772-22 7.471-20 5.645-18 3.707-16 1.887-14 7.474-13 2.381-11
 *O2             2.0948-1 2.0948-1 2.0948-1 2.0948-1 2.0947-1 2.0947-1 2.0947-1 2.0945-1
 O3              1.660-19 2.495-18 3.506-17 4.602-16 5.587-15 5.868-14 5.354-13 4.331-12

  * THERMODYNAMIC PROPERTIES FITTED TO 20000.K



