
 *******************************************************************************

         NASA-GLENN CHEMICAL EQUILIBRIUM PROGRAM CEA2, MAY 21, 2004
                   BY  BONNIE MCBRIDE AND SANFORD GORDON
      REFS: NASA RP-1311, PART I, 1994 AND NASA RP-1311, PART II, 1996

 *******************************************************************************



 prob
 shock inc eq u1=362,394,428,465,505,549,596,648 t,k=300,300,300,300,300,300,300,
 300 p,bar=1,1,1,1,1,1,1,1
 react
   name=Air moles=1 t,k=300
 output
      trace=1e-16 siunits short
 end




                         SHOCK WAVE PARAMETERS ASSUMING

                 EQUILIBRIUM COMPOSITION FOR INCIDENT SHOCKED CONDITIONS


 CASE =                

             REACTANT                       MOLES         ENERGY      TEMP
                                                         KJ/KG-MOL      K
 NAME        Air                          1.0000000       -71.689    300.000

 O/F=    0.00000  %FUEL=  0.000000  R,EQ.RATIO= 0.001521  PHI,EQ.RATIO= 0.000000

 INITIAL GAS (1)
 MACH NUMBER1      1.0426   1.1348   1.2327   1.3392   1.4544   1.5812   1.7165   1.8663
 U1, M/SEC         362.00   394.00   428.00   465.00   505.00   549.00   596.00   648.00
 P, BAR            1.0000   1.0000   1.0000   1.0000   1.0000   1.0000   1.0000   1.0000
 T, K              300.00   300.00   300.00   300.00   300.00   300.00   300.00   300.00
 RHO, KG/CU M    1.1612 0 1.1612 0 1.1612 0 1.1612 0 1.1612 0 1.1612 0 1.1612 0 1.1612 0
 H, KJ/KG         -2.4750  -2.4750  -2.4750  -2.4750  -2.4750  -2.4750  -2.4750  -2.4750
 U, KJ/KG         -88.591  -88.591  -88.591  -88.591  -88.591  -88.591  -88.591  -88.591
 G, KJ/KG        -2063.60 -2063.60 -2063.60 -2063.60 -2063.60 -2063.60 -2063.60 -2063.60
 S, KJ/(KG)(K)     6.8704   6.8704   6.8704   6.8704   6.8704   6.8704   6.8704   6.8704

 M, (1/n)          28.965   28.965   28.965   28.965   28.965   28.965   28.965   28.965
 Cp, KJ/(KG)(K)    1.0048   1.0048   1.0048   1.0048   1.0048   1.0048   1.0048   1.0048
 GAMMAs            1.3999   1.3999   1.3999   1.3999   1.3999   1.3999   1.3999   1.3999
 SON VEL,M/SEC      347.2    347.2    347.2    347.2    347.2    347.2    347.2    347.2

 SHOCKED GAS (2)--INCIDENT--EQUILIBRIUM
 U2, M/SEC         337.83   320.56   305.90   293.28   282.70   273.90   267.05   261.83
 P, BAR            1.1016   1.3360   1.6069   1.9272   2.3036   2.7538   3.2767   3.9059
 T, K              308.42   326.09   344.53   364.66   386.88   412.17   440.45   473.45
 RHO, KG/CU M    1.2443 0 1.4273 0 1.6248 0 1.8411 0 2.0743 0 2.3275 0 2.5916 0 2.8739 0
 H, KJ/KG          5.9825   23.764   42.331   62.630   85.087   110.72   139.48   173.20
 U, KJ/KG         -82.549  -69.842  -56.568  -42.046  -25.968  -7.5952   13.047   37.297
 G, KJ/KG        -2112.97 -2216.87 -2325.82 -2445.71 -2579.41 -2733.32 -2907.42 -3113.09
 S, KJ/(KG)(K)     6.8704   6.8711   6.8735   6.8786   6.8872   6.9001   6.9177   6.9411

 M, (1/n)          28.965   28.965   28.965   28.965   28.965   28.965   28.965   28.965
 (dLV/dLP)t      -1.00000 -1.00000 -1.00000 -1.00000 -1.00000 -1.00000 -1.00000 -1.00000
 (dLV/dLT)p        1.0000   1.0000   1.0000   1.0000   1.0000   1.0000   1.0000   1.0000
 Cp, KJ/(KG)(K)    1.0053   1.0063   1.0077   1.0095   1.0119   1.0150   1.0191   1.0246
 GAMMAs            1.3997   1.3991   1.3983   1.3973   1.3960   1.3943   1.3921   1.3892
 SON VEL,M/SEC      352.0    361.9    371.9    382.4    393.7    406.2    419.5    434.5

 P2/P1              1.102    1.336    1.607    1.927    2.304    2.754    3.277    3.906
 T2/T1              1.028    1.087    1.148    1.216    1.290    1.374    1.468    1.578
 M2/M1             1.0000   1.0000   1.0000   1.0000   1.0000   1.0000   1.0000   1.0000
 RHO2/RHO1         1.0715   1.2291   1.3992   1.5855   1.7863   2.0044   2.2318   2.4749
 V2, M/SEC          24.17    73.44   122.10   171.72   222.30   275.10   328.95   386.17

 MOLE FRACTIONS

 *Ar             9.3650-3 9.3650-3 9.3650-3 9.3650-3 9.3650-3 9.3650-3 9.3650-3 9.3650-3
 *CO2            3.1900-4 3.1900-4 3.1900-4 3.1900-4 3.1900-4 3.1900-4 3.1900-4 3.1900-4
 *NO             6.240-16 4.298-15 2.605-14 1.513-13 8.530-13 4.870-12 2.695-11 1.533-10
 NO2             2.101-10 4.754-10 1.019 -9 2.143 -9 4.440 -9 9.224 -9 1.886 -8 3.891 -8
 *N2             7.8084-1 7.8084-1 7.8084-1 7.8084-1 7.8084-1 7.8084-1 7.8084-1 7.8084-1
 N2O             7.582-19 4.678-18 2.560-17 1.345-16 6.860-16 3.535-15 1.766-14 9.050-14
 *O2             2.0948-1 2.0948-1 2.0948-1 2.0948-1 2.0948-1 2.0948-1 2.0948-1 2.0948-1

  * THERMODYNAMIC PROPERTIES FITTED TO 20000.K



