
 *******************************************************************************

         NASA-GLENN CHEMICAL EQUILIBRIUM PROGRAM CEA2, MAY 21, 2004
                   BY  BONNIE MCBRIDE AND SANFORD GORDON
      REFS: NASA RP-1311, PART I, 1994 AND NASA RP-1311, PART II, 1996

 *******************************************************************************



 problem    ions
       shock  inc  ref  eq  u1=362,394,428,465,505,549,596,648, t,k=300,300,300,3
 00,300,300,300,300,  p,bar=1,1,1,1,1,1,1,1,
 react
   name=Air moles=1 t,k=300
 output
      trace=1e-16 siunits short
 end




                         SHOCK WAVE PARAMETERS ASSUMING

                 EQUILIBRIUM COMPOSITION FOR INCIDENT SHOCKED CONDITIONS


 CASE =                

             REACTANT                       MOLES         ENERGY      TEMP
                                                         KJ/KG-MOL      K
 NAME        Air                          1.0000000       -71.689    300.000

 O/F=    0.00000  %FUEL=  0.000000  R,EQ.RATIO= 0.001521  PHI,EQ.RATIO= 0.000000

 INITIAL GAS (1)
 MACH NUMBER1      1.0426   1.1348   1.2327   1.3392   1.4544   1.5812   1.7165   1.8663
 U1, M/SEC         362.00   394.00   428.00   465.00   505.00   549.00   596.00   648.00
 P, BAR            1.0000   1.0000   1.0000   1.0000   1.0000   1.0000   1.0000   1.0000
 T, K              300.00   300.00   300.00   300.00   300.00   300.00   300.00   300.00
 RHO, KG/CU M    1.1612 0 1.1612 0 1.1612 0 1.1612 0 1.1612 0 1.1612 0 1.1612 0 1.1612 0
 H, KJ/KG         -2.4750  -2.4750  -2.4750  -2.4750  -2.4750  -2.4750  -2.4750  -2.4750
 U, KJ/KG         -88.591  -88.591  -88.591  -88.591  -88.591  -88.591  -88.591  -88.591
 G, KJ/KG        -2063.60 -2063.60 -2063.60 -2063.60 -2063.60 -2063.60 -2063.60 -2063.60
 S, KJ/(KG)(K)     6.8704   6.8704   6.8704   6.8704   6.8704   6.8704   6.8704   6.8704

 M, (1/n)          28.965   28.965   28.965   28.965   28.965   28.965   28.965   28.965
 Cp, KJ/(KG)(K)    1.0048   1.0048   1.0048   1.0048   1.0048   1.0048   1.0048   1.0048
 GAMMAs            1.3999   1.3999   1.3999   1.3999   1.3999   1.3999   1.3999   1.3999
 SON VEL,M/SEC      347.2    347.2    347.2    347.2    347.2    347.2    347.2    347.2

 SHOCKED GAS (5)--REFLECTED--EQUILIBRIUM
 U5, M/SEC          22.58    60.24    89.12   112.57   132.13   149.32   164.53   178.96
 P, BAR            1.2119   1.7642   2.5036   3.5034   4.8309   6.6063   8.8873   11.893
 T, K              316.94   353.20   391.80   434.58   482.24   536.71   597.53   668.08
 RHO, KG/CU M    1.3321 0 1.7401 0 2.2261 0 2.8084 0 3.4898 0 4.2880 0 5.1814 0 6.2017 0
 H, KJ/KG          14.555   51.069   90.070   133.50   182.21   238.40   301.87   376.56
 U, KJ/KG         -76.423  -50.318  -22.398   8.7507   43.785   84.334   130.34   184.79
 G, KJ/KG        -2162.98 -2376.04 -2603.99 -2858.49 -3144.74 -3475.38 -3848.78 -4287.20
 S, KJ/(KG)(K)     6.8705   6.8718   6.8761   6.8848   6.8989   6.9195   6.9463   6.9809

 M, (1/n)          28.965   28.965   28.965   28.965   28.965   28.965   28.965   28.965
 (dLV/dLP)t      -1.00000 -1.00000 -1.00000 -1.00000 -1.00000 -1.00000 -1.00000 -1.00000
 (dLV/dLT)p        1.0000   1.0000   1.0000   1.0000   1.0000   1.0000   1.0000   1.0000
 Cp, KJ/(KG)(K)    1.0057   1.0084   1.0124   1.0182   1.0262   1.0369   1.0504   1.0672
 GAMMAs            1.3994   1.3979   1.3957   1.3926   1.3884   1.3828   1.3760   1.3679
 SON VEL,M/SEC      356.8    376.5    396.2    416.8    438.4    461.6    485.8    512.2

 P5/P2              1.100    1.321    1.558    1.818    2.097    2.399    2.712    3.045
 T5/T2              1.028    1.083    1.137    1.192    1.246    1.302    1.357    1.411
 M5/M2             1.0000   1.0000   1.0000   1.0000   1.0000   1.0000   1.0000   1.0000
 RHO5/RHO2         1.0705   1.2192   1.3701   1.5254   1.6824   1.8423   1.9993   2.1579
 U5+V2,M/SEC         1.59    13.20    32.98    59.14    90.16   125.77   164.42   207.22
 V2, M/SEC          24.17    73.44   122.10   171.72   222.30   275.10   328.95   386.17

 MOLE FRACTIONS

 *Ar             9.3650-3 9.3650-3 9.3650-3 9.3650-3 9.3650-3 9.3650-3 9.3650-3 9.3650-3
 *CO2            3.1900-4 3.1900-4 3.1900-4 3.1900-4 3.1900-4 3.1900-4 3.1900-4 3.1900-4
 *NO             1.626-15 5.695-14 1.219-12 1.924-11 2.339-10 2.361 -9 1.896 -8 1.322 -7
 NO2             3.151-10 1.428 -9 5.280 -9 1.723 -8 5.050 -8 1.372 -7 3.394 -7 7.943 -7
 NO3             2.546-21 5.837-20 8.818-19 1.033-17 9.726-17 7.875-16 5.277-15 3.172-14
 *N2             7.8084-1 7.8084-1 7.8084-1 7.8084-1 7.8084-1 7.8084-1 7.8084-1 7.8084-1
 N2O             1.871-18 5.387-17 9.824-16 1.354-14 1.466-13 1.340-12 9.932-12 6.492-11
 N2O3            1.203-25 6.176-24 1.914-22 4.367-21 7.639-20 1.112-18 1.280-17 1.289-16
 N2O4            2.151-19 6.963-19 2.012-18 5.456-18 1.399-17 3.479-17 8.235-17 1.923-16
 *O2             2.0948-1 2.0948-1 2.0948-1 2.0948-1 2.0948-1 2.0948-1 2.0948-1 2.0948-1
 O3              1.160-28 3.490-26 4.801-24 4.084-22 2.299-20 9.667-19 2.833-17 6.668-16

  * THERMODYNAMIC PROPERTIES FITTED TO 20000.K



