
 *******************************************************************************

         NASA-GLENN CHEMICAL EQUILIBRIUM PROGRAM CEA2, MAY 21, 2004
                   BY  BONNIE MCBRIDE AND SANFORD GORDON
      REFS: NASA RP-1311, PART I, 1994 AND NASA RP-1311, PART II, 1996

 *******************************************************************************



 problem    ions
       shock  inc  eq  u1=5169,5617,6103,6632,7206,7830,8509,9246, t,k=300,300,30
 0,300,300,300,300,300,  p,bar=1,1,1,1,1,1,1,1,
 react
   name=Air moles=1 t,k=300
 output
      trace=1e-16 siunits short
 end




                         SHOCK WAVE PARAMETERS ASSUMING

                 EQUILIBRIUM COMPOSITION FOR INCIDENT SHOCKED CONDITIONS


 CASE =                

             REACTANT                       MOLES         ENERGY      TEMP
                                                         KJ/KG-MOL      K
 NAME        Air                          1.0000000       -71.689    300.000

 O/F=    0.00000  %FUEL=  0.000000  R,EQ.RATIO= 0.001521  PHI,EQ.RATIO= 0.000000

 INITIAL GAS (1)
 MACH NUMBER1     14.8872  16.1775  17.5772  19.1008  20.7539  22.5511  24.5067  26.6293
 U1, M/SEC        5169.00  5617.00  6103.00  6632.00  7206.00  7830.00  8509.00  9246.00
 P, BAR            1.0000   1.0000   1.0000   1.0000   1.0000   1.0000   1.0000   1.0000
 T, K              300.00   300.00   300.00   300.00   300.00   300.00   300.00   300.00
 RHO, KG/CU M    1.1612 0 1.1612 0 1.1612 0 1.1612 0 1.1612 0 1.1612 0 1.1612 0 1.1612 0
 H, KJ/KG         -2.4750  -2.4750  -2.4750  -2.4750  -2.4750  -2.4750  -2.4750  -2.4750
 U, KJ/KG         -88.591  -88.591  -88.591  -88.591  -88.591  -88.591  -88.591  -88.591
 G, KJ/KG        -2063.60 -2063.60 -2063.60 -2063.60 -2063.60 -2063.60 -2063.60 -2063.60
 S, KJ/(KG)(K)     6.8704   6.8704   6.8704   6.8704   6.8704   6.8704   6.8704   6.8704

 M, (1/n)          28.965   28.965   28.965   28.965   28.965   28.965   28.965   28.965
 Cp, KJ/(KG)(K)    1.0048   1.0048   1.0048   1.0048   1.0048   1.0048   1.0048   1.0048
 GAMMAs            1.3999   1.3999   1.3999   1.3999   1.3999   1.3999   1.3999   1.3999
 SON VEL,M/SEC      347.2    347.2    347.2    347.2    347.2    347.2    347.2    347.2

 SHOCKED GAS (2)--INCIDENT--EQUILIBRIUM
 U2, M/SEC         532.40   557.00   579.11   601.78   627.58   659.07   699.38   753.19
 P, BAR            279.31   331.05   392.48   465.41   551.48   653.02   772.68   912.87
 T, K             7225.97  7948.13  8635.80  9314.07 10009.63 10759.37 11618.18 12684.76
 RHO, KG/CU M    1.1274 1 1.1710 1 1.2238 1 1.2797 1 1.3333 1 1.3796 1 1.4128 1 1.4255 1
 H, KJ/KG         13215.1  15617.7  18453.2  21808.2  25763.8  30434.8  35954.5  42458.1
 U, KJ/KG         10737.7  12790.7  15246.0  18171.4  21627.7  25701.3  30485.4  36054.3
 G, KJ/KG        -58280.9 -65066.5 -71628.4 -78224.2 -85153.9 -92855.6-102022.0-113952.4
 S, KJ/(KG)(K)     9.8943  10.1513  10.4312  10.7399  11.0811  11.4589  11.8759  12.3306

 M, (1/n)          24.251   23.376   22.388   21.294   20.122   18.899   17.663   16.469
 (dLV/dLP)t      -1.03471 -1.04463 -1.05874 -1.07460 -1.08933 -1.09942 -1.10038 -1.08780
 (dLV/dLT)p        1.3876   1.5370   1.7211   1.9034   2.0478   2.1158   2.0660   1.8709
 Cp, KJ/(KG)(K)    3.1936   4.0820   5.1217   6.1575   7.0243   7.5224   7.4091   6.5019
 GAMMAs            1.2077   1.1922   1.1849   1.1836   1.1867   1.1939   1.2060   1.2255
 SON VEL,M/SEC     1729.7   1835.8   1949.4   2074.7   2215.5   2377.2   2568.2   2801.4

 P2/P1            279.309  331.048  392.481  465.410  551.478  653.023  772.675  912.867
 T2/T1             24.087   26.494   28.786   31.047   33.365   35.865   38.727   42.283
 M2/M1             0.8373   0.8070   0.7729   0.7352   0.6947   0.6525   0.6098   0.5686
 RHO2/RHO1         9.7089  10.0843  10.5386  11.0206  11.4821  11.8803  12.1665  12.2758
 V2, M/SEC        4636.60  5060.00  5523.89  6030.22  6578.42  7170.93  7809.62  8492.81

 MOLE FRACTIONS

 *e-             1.9171-4 3.6287-4 5.9982-4 9.2742-4 1.4076-3 2.1760-3 3.5278-3 6.1935-3
 *Ar             7.8409-3 7.5579-3 7.2381-3 6.8834-3 6.5021-3 6.1024-3 5.6940-3 5.2896-3
 *Ar+            2.4321-8 1.3313-7 5.0310-7 1.4810-6 3.6608-6 8.0639-6 1.6761-5 3.5263-5
 *C              1.4292-6 6.0386-6 1.7632-5 3.8724-5 6.7164-5 9.6149-5 1.1899-4 1.3302-4
 *C+             6.845-10 8.338 -9 5.586 -8 2.403 -7 7.263 -7 1.668 -6 3.157 -6 5.369 -6
 *C-             2.041-10 1.249 -9 4.942 -9 1.435 -8 3.304 -8 6.426 -8 1.119 -7 1.832 -7
 *CN             1.8451-6 5.4578-6 1.1957-5 2.0399-5 2.7759-5 3.0775-5 2.8324-5 2.1678-5
 *CN+            3.602-11 4.677-10 3.281 -9 1.449 -8 4.389 -8 9.787 -8 1.715 -7 2.505 -7
 CN-             5.1490-9 1.4546-8 3.0836-8 5.2150-8 7.2687-8 8.5602-8 8.6480-8 7.4203-8
 CNN             1.0677-9 4.4624-9 1.2747-8 2.6727-8 4.2561-8 5.2713-8 5.1393-8 3.8686-8
 *CO             2.6122-4 2.4442-4 2.1581-4 1.7419-4 1.2502-4 7.8593-5 4.3086-5 2.0348-5
 *CO+            4.9617-9 2.0802-8 6.0413-8 1.3019-7 2.1537-7 2.8294-7 3.0817-7 2.9099-7
 *CO2            2.4622-6 1.3071-6 7.4917-7 4.2760-7 2.2870-7 1.1012-7 4.6524-8 1.6638-8
 *CO2+           3.266-10 7.226-10 1.266 -9 1.788 -9 2.033 -9 1.872 -9 1.422 -9 9.027-10
 *C2             3.934-12 3.279-11 1.578-10 4.835-10 9.924-10 1.439 -9 1.567 -9 1.350 -9
 *C2+            1.323-15 3.741-14 4.697-13 3.134-12 1.229-11 3.107-11 5.593-11 7.914-11
 C2-             8.442-15 7.350-14 3.692-13 1.200-12 2.687-12 4.407-12 5.633-12 5.877-12
 CCN             8.126-14 6.824-13 3.271-12 9.822-12 1.931-11 2.598-11 2.498-11 1.752-11
 CNC             5.036-13 3.528-12 1.463-11 3.885-11 6.849-11 8.314-11 7.223-11 4.547-11
 OCCN            1.280-12 3.601-12 7.290-12 1.068-11 1.118-11 8.350-12 4.470-12 1.672-12
 C2N2            2.126-13 9.664-13 2.847-12 5.636-12 7.546-12 6.907-12 4.362-12 1.845-12
 C2O             1.381-11 4.229-11 9.229-11 1.462-10 1.676-10 1.407-10 8.875-11 4.240-11
 *C3             1.238-17 1.773-16 1.267-15 4.978-15 1.124-14 1.542-14 1.382-14 8.544-15
 *N              5.9423-2 1.1284-1 1.8187-1 2.6265-1 3.5121-1 4.4402-1 5.3672-1 6.2228-1
 *N+             5.1374-7 4.5357-6 2.4470-5 9.4806-5 2.9107-4 7.6123-4 1.8012-3 4.1045-3
 *N-             2.0289-6 6.7212-6 1.6952-5 3.6385-5 7.1328-5 1.3393-4 2.4761-4 4.5719-4
 NCO             1.1281-7 1.6847-7 2.1488-7 2.3321-7 2.1253-7 1.6118-7 1.0083-7 5.0390-8
 *NO             6.7520-2 5.5648-2 4.6229-2 3.8320-2 3.1350-2 2.4961-2 1.8958-2 1.3278-2
 *NO+            2.2628-4 4.0314-4 6.1075-4 8.1686-4 9.8134-4 1.0692-3 1.0633-3 9.6837-4
 NO2             4.7900-5 3.1454-5 2.2130-5 1.6135-5 1.1857-5 8.5478-6 5.8576-6 3.6397-6
 NO2-            1.9710-8 1.5441-8 1.2562-8 1.0561-8 9.0966-9 7.9138-9 6.7662-9 5.4122-9
 NO3             1.649 -9 9.150-10 5.635-10 3.677-10 2.444-10 1.594-10 9.775-11 5.298-11
 NO3-            4.381-12 2.423-12 1.505-12 1.014-12 7.207-13 5.229-13 3.711-13 2.408-13
 *N2             5.9006-1 5.4560-1 4.8901-1 4.2287-1 3.5015-1 2.7348-1 1.9596-1 1.2232-1
 *N2+            1.4560-6 8.0266-6 2.9904-5 8.4532-5 1.9392-4 3.7764-4 6.4346-4 9.7735-4
 *N2-            4.6540-6 9.6322-6 1.6565-5 2.5372-5 3.6061-5 4.8518-5 6.1507-5 7.0996-5
 NCN             4.1824-9 1.4264-8 3.4639-8 6.3334-8 8.9328-8 9.8765-8 8.6065-8 5.7541-8
 N2O             7.9991-5 7.3028-5 6.5622-5 5.7420-5 4.8243-5 3.8120-5 2.7380-5 1.6804-5
 N2O+            3.1886-8 1.0603-7 2.6294-7 5.2556-7 8.8086-7 1.2651-6 1.5685-6 1.6614-6
 N2O3            7.159-10 4.407-10 2.938-10 2.026-10 1.386-10 9.014-11 5.270-11 2.537-11
 N2O4            1.242-14 5.775-15 3.108-15 1.805-15 1.065-15 6.029-16 3.058-16 1.253-16
 N3              4.8599-6 9.5646-6 1.5569-5 2.1939-5 2.7339-5 3.0186-5 2.8878-5 2.2533-5
 *O              2.6551-1 2.7213-1 2.7076-1 2.6470-1 2.5579-1 2.4516-1 2.3368-1 2.2221-1
 *O+             2.0807-6 8.7864-6 2.6754-5 6.5496-5 1.3761-4 2.6115-4 4.7056-4 8.5704-4
 *O-             3.2795-5 4.7629-5 6.3158-5 8.0536-5 1.0209-4 1.3158-4 1.7476-4 2.4139-4
 *O2             8.7814-3 4.9995-3 3.1411-3 2.0999-3 1.4533-3 1.0173-3 7.0493-4 4.7096-4
 *O2+            1.4875-6 2.7406-6 4.3599-6 6.2501-6 8.2427-6 1.0166-5 1.1962-5 1.3813-5
 O2-             6.6899-7 6.1971-7 5.7851-7 5.5246-7 5.4358-7 5.5200-7 5.7534-7 6.0738-7
 O3              2.6591-6 1.8291-6 1.3582-6 1.0601-6 8.4979-7 6.8641-7 5.4925-7 4.2704-7

  * THERMODYNAMIC PROPERTIES FITTED TO 20000.K



