
 *******************************************************************************

         NASA-GLENN CHEMICAL EQUILIBRIUM PROGRAM CEA2, MAY 21, 2004
                   BY  BONNIE MCBRIDE AND SANFORD GORDON
      REFS: NASA RP-1311, PART I, 1994 AND NASA RP-1311, PART II, 1996

 *******************************************************************************



 problem    phi,eq.ratio=3.7,3.8,3.9,4,
       hp   p,bar=1,  t,k=3800
 react
   fuel=CH3OH moles=1 t,k=300
   oxid=O2 moles=1.5 t,k=300
 output
      trace=1e-16 siunits short
 end




         THERMODYNAMIC EQUILIBRIUM COMBUSTION PROPERTIES AT ASSIGNED

                                   PRESSURES

 CASE =                

             REACTANT                       MOLES         ENERGY      TEMP
                                                         KJ/KG-MOL      K
 FUEL        CH3OH                        1.0000000   -200858.418    300.000
 OXIDANT     O2                           1.5000000        54.358    300.000

 O/F=    0.40486  %FUEL= 71.181440  R,EQ.RATIO= 2.208955  PHI,EQ.RATIO= 3.700000

 THERMODYNAMIC PROPERTIES

 P, BAR            1.0000
 T, K             1410.78
 RHO, KG/CU M    1.2792-1
 H, KJ/KG        -4461.61
 U, KJ/KG        -5243.35
 G, KJ/KG        -25857.2
 S, KJ/(KG)(K)    15.1658

 M, (1/n)          15.005
 (dLV/dLP)t      -1.00001
 (dLV/dLT)p        1.0001
 Cp, KJ/(KG)(K)    2.6271
 GAMMAs            1.2674
 SON VEL,M/SEC      995.4

 MOLE FRACTIONS

 CH2             2.094-15
 CH3             2.907-10
 CH2OH           1.397-13
 CH3O            5.155-15
 CH4             1.7074-6
 CH3OH           4.168-11
 *CO             2.7531-1
 *CO2            5.8022-2
 COOH            1.982-10
 C2H2,acetylene  5.379-12
 CH2CO,ketene    3.349-11
 O(CH)2O         4.987-16
 CH3CO,acetyl    1.582-15
 C2H4            1.818-12
 CH3CHO,ethanal  4.869-14
 CH3COOH         4.697-15
 C2H6            1.491-14
 C3O2            1.708-15
 *H              3.8030-6
 HCO             2.4130-9
 HCCO            6.001-16
 *H2             4.5441-1
 HCHO,formaldehy 5.7340-8
 HCOOH           3.2243-8
 H2O             2.1225-1
 H2O2            6.380-15
 *O              2.776-13
 *OH             4.3834-8
 *O2             6.165-14

  * THERMODYNAMIC PROPERTIES FITTED TO 20000.K









         THERMODYNAMIC EQUILIBRIUM COMBUSTION PROPERTIES AT ASSIGNED

                                   PRESSURES

 CASE =                

             REACTANT                       MOLES         ENERGY      TEMP
                                                         KJ/KG-MOL      K
 FUEL        CH3OH                        1.0000000   -200858.418    300.000
 OXIDANT     O2                           1.5000000        54.358    300.000

 O/F=    0.39421  %FUEL= 71.725393  R,EQ.RATIO= 2.235294  PHI,EQ.RATIO= 3.800000

 THERMODYNAMIC PROPERTIES

 P, BAR            1.0000
 T, K             1367.51
 RHO, KG/CU M    1.3097-1
 H, KJ/KG        -4495.72
 U, KJ/KG        -5259.27
 G, KJ/KG        -25234.2
 S, KJ/(KG)(K)    15.1652

 M, (1/n)          14.891
 (dLV/dLP)t      -1.00001
 (dLV/dLT)p        1.0002
 Cp, KJ/(KG)(K)    2.6383
 GAMMAs            1.2685
 SON VEL,M/SEC      984.2

 MOLE FRACTIONS

 CH2             1.151-15
 CH3             3.147-10
 CH2OH           1.134-13
 CH3O            3.794-15
 CH4             3.4355-6
 CH3OH           5.708-11
 *CO             2.7407-1
 *CO2            5.9261-2
 COOH            1.264-10
 C2H2,acetylene  6.936-12
 CH2CO,ketene    4.421-11
 O(CH)2O         4.852-16
 CH3CO,acetyl    1.906-15
 C2H4            3.957-12
 CH3CHO,ethanal  9.183-14
 CH3COOH         8.578-15
 C2H6            4.857-14
 C3O2            1.781-15
 *H              2.0955-6
 HCO             1.6156-9
 HCCO            4.216-16
 *H2             4.6276-1
 HCHO,formaldehy 5.8951-8
 HCOOH           3.2336-8
 H2O             2.0390-1
 H2O2            2.202-15
 *O              6.730-14
 *OH             1.9309-8
 *O2             1.425-14

  * THERMODYNAMIC PROPERTIES FITTED TO 20000.K









         THERMODYNAMIC EQUILIBRIUM COMBUSTION PROPERTIES AT ASSIGNED

                                   PRESSURES

 CASE =                

             REACTANT                       MOLES         ENERGY      TEMP
                                                         KJ/KG-MOL      K
 FUEL        CH3OH                        1.0000000   -200858.418    300.000
 OXIDANT     O2                           1.5000000        54.358    300.000

 O/F=    0.38410  %FUEL= 72.249193  R,EQ.RATIO= 2.260870  PHI,EQ.RATIO= 3.900000

 THERMODYNAMIC PROPERTIES

 P, BAR            1.0000
 T, K             1326.18
 RHO, KG/CU M    1.3407-1
 H, KJ/KG        -4528.56
 U, KJ/KG        -5274.44
 G, KJ/KG        -24636.0
 S, KJ/(KG)(K)    15.1619

 M, (1/n)          14.783
 (dLV/dLP)t      -1.00003
 (dLV/dLT)p        1.0003
 Cp, KJ/(KG)(K)    2.6516
 GAMMAs            1.2694
 SON VEL,M/SEC      973.0

 MOLE FRACTIONS

 CH2             6.251-16
 CH3             3.399-10
 CH2OH           9.157-14
 CH3O            2.775-15
 CH4             6.9661-6
 CH3OH           7.839-11
 *CO             2.7268-1
 *CO2            6.0649-2
 COOH            8.014-11
 C2H2,acetylene  8.942-12
 CH2CO,ketene    5.846-11
 O(CH)2O         4.717-16
 CH3CO,acetyl    2.297-15
 C2H4            8.672-12
 CH3CHO,ethanal  1.744-13
 CH3COOH         1.581-14
 C2H5            1.054-16
 C2H6            1.603-13
 C3O2            1.855-15
 *H              1.1437-6
 HCO             1.0739-9
 HCCO            2.939-16
 *H2             4.7089-1
 HCHO,formaldehy 6.0558-8
 HCOOH           3.2481-8
 H2O             1.9577-1
 H2O2            7.490-16
 *O              1.598-14
 *OH             8.4028-9
 *O2             3.229-15

  * THERMODYNAMIC PROPERTIES FITTED TO 20000.K









         THERMODYNAMIC EQUILIBRIUM COMBUSTION PROPERTIES AT ASSIGNED

                                   PRESSURES

 CASE =                

             REACTANT                       MOLES         ENERGY      TEMP
                                                         KJ/KG-MOL      K
 FUEL        CH3OH                        1.0000000   -200858.418    300.000
 OXIDANT     O2                           1.5000000        54.358    300.000

 O/F=    0.37450  %FUEL= 72.753938  R,EQ.RATIO= 2.285714  PHI,EQ.RATIO= 4.000000

 THERMODYNAMIC PROPERTIES

 P, BAR            1.0000
 T, K             1286.70
 RHO, KG/CU M    1.3723-1
 H, KJ/KG        -4560.21
 U, KJ/KG        -5288.93
 G, KJ/KG        -24061.9
 S, KJ/(KG)(K)    15.1563

 M, (1/n)          14.681
 (dLV/dLP)t      -1.00006
 (dLV/dLT)p        1.0006
 Cp, KJ/(KG)(K)    2.6674
 GAMMAs            1.2699
 SON VEL,M/SEC      962.0

 MOLE FRACTIONS

 CH2             3.354-16
 CH3             3.664-10
 CH2OH           7.358-14
 CH3O            2.019-15
 CH4             1.4232-5
 CH3OH           1.079-10
 *CO             2.7115-1
 *CO2            6.2181-2
 COOH            5.051-11
 C2H2,acetylene  1.153-11
 CH2CO,ketene    7.746-11
 O(CH)2O         4.582-16
 CH3CO,acetyl    2.770-15
 C2H4            1.914-11
 CH3CHO,ethanal  3.334-13
 CH3COOH         2.938-14
 C2H5            1.969-16
 C2H6            5.358-13
 C3O2            1.931-15
 *H              6.1859-7
 HCO             7.087-10
 HCCO            2.034-16
 *H2             4.7882-1
 HCHO,formaldehy 6.2161-8
 HCOOH           3.2673-8
 H2O             1.8784-1
 H2O2            2.511-16
 *O              3.719-15
 *OH             3.6135-9
 *O2             7.174-16

  * THERMODYNAMIC PROPERTIES FITTED TO 20000.K



