
 *******************************************************************************

         NASA-GLENN CHEMICAL EQUILIBRIUM PROGRAM CEA2, MAY 21, 2004
                   BY  BONNIE MCBRIDE AND SANFORD GORDON
      REFS: NASA RP-1311, PART I, 1994 AND NASA RP-1311, PART II, 1996

 *******************************************************************************



 problem    phi,eq.ratio=3.7,3.8,3.9,4,
       hp   p,bar=1,  t,k=3800
 react
   fuel=C2H2,acetylene moles=1 t,k=300
   oxid=O2 moles=2.5 t,k=300
 output
      trace=1e-16 siunits short
 end




         THERMODYNAMIC EQUILIBRIUM COMBUSTION PROPERTIES AT ASSIGNED

                                   PRESSURES

 CASE =                

             REACTANT                       MOLES         ENERGY      TEMP
                                                         KJ/KG-MOL      K
 FUEL        C2H2,acetylene               1.0000000    228281.530    300.000
 OXIDANT     O2                           2.5000000        54.358    300.000

 O/F=    0.83038  %FUEL= 54.633494  R,EQ.RATIO= 3.700000  PHI,EQ.RATIO= 3.700000

 THERMODYNAMIC PROPERTIES

 P, BAR            1.0000
 T, K             3161.85
 RHO, KG/CU M    7.1529-2
 H, KJ/KG         4790.76
 U, KJ/KG         3392.73
 G, KJ/KG        -39134.6
 S, KJ/(KG)(K)    13.8923

 M, (1/n)          18.805
 MW, MOL WT        15.913
 (dLV/dLP)t      -1.03494
 (dLV/dLT)p        1.6284
 Cp, KJ/(KG)(K)    8.4943
 GAMMAs            1.1149
 SON VEL,M/SEC     1248.5

 MOLE FRACTIONS

 *C              1.8460-4
 *CH             3.4876-5
 CH2             3.5818-5
 CH3             3.5028-5
 CH2OH           7.585-12
 CH3O            1.985-12
 CH4             5.1351-6
 CH3OH           2.610-13
 *CO             4.5119-1
 *CO2            2.1301-7
 COOH            2.618-12
 *C2             1.3967-4
 C2H             2.4668-3
 C2H2,acetylene  2.4267-2
 C2H2,vinylidene 1.0894-4
 CH2CO,ketene    2.9546-7
 O(CH)2O         3.119-15
 C2H3,vinyl      3.7512-6
 CH3CO,acetyl    7.588-11
 C2H4            8.3342-7
 C2H4O,ethylen-o 8.922-16
 CH3CHO,ethanal  8.573-13
 C2H5            2.286-10
 C2H6            6.022-12
 C2O             7.1496-6
 *C3             1.3541-3
 C3H3,1-propynl  3.7867-8
 C3H3,2-propynl  1.8095-5
 C3H4,allene     7.4121-8
 C3H4,propyne    1.5534-7
 C3H4,cyclo-     2.1162-9
 C3H5,allyl      2.211-10
 C3H6,propylene  6.664-12
 C3H6,cyclo-     5.523-14
 C3H7,n-propyl   7.182-16
 C3H7,i-propyl   4.390-16
 C3O2            2.3399-9
 *C4             7.0282-6
 C4H2,butadiyne  9.8192-4
 C4H4,1,3-cyclo- 4.528-11
 C4H6,butadiene  2.887-12
 C4H6,1butyne    5.049-13
 C4H6,2butyne    2.349-13
 C4H6,cyclo-     1.065-14
 *C5             3.9228-5
 C5H6,1,3cyclo-  7.124-14
 C6H2            4.2319-5
 C6H5,phenyl     6.466-13
 C6H6            9.414-14
 *H              1.1636-1
 HCO             4.0383-6
 HCCO            3.2543-7
 *H2             2.4892-1
 HCHO,formaldehy 5.5010-8
 HCOOH           1.828-13
 H2O             9.0696-7
 *O              4.4345-8
 *OH             1.7094-7
 *O2             6.327-14
 C(gr)           1.5378-1

  * THERMODYNAMIC PROPERTIES FITTED TO 20000.K









         THERMODYNAMIC EQUILIBRIUM COMBUSTION PROPERTIES AT ASSIGNED

                                   PRESSURES

 CASE =                

             REACTANT                       MOLES         ENERGY      TEMP
                                                         KJ/KG-MOL      K
 FUEL        C2H2,acetylene               1.0000000    228281.530    300.000
 OXIDANT     O2                           2.5000000        54.358    300.000

 O/F=    0.80853  %FUEL= 55.293619  R,EQ.RATIO= 3.800000  PHI,EQ.RATIO= 3.800000

 THERMODYNAMIC PROPERTIES

 P, BAR            1.0000
 T, K             3156.51
 RHO, KG/CU M    7.1915-2
 H, KJ/KG         4848.62
 U, KJ/KG         3458.09
 G, KJ/KG        -38930.4
 S, KJ/(KG)(K)    13.8695

 M, (1/n)          18.874
 MW, MOL WT        15.727
 (dLV/dLP)t      -1.03476
 (dLV/dLT)p        1.6250
 Cp, KJ/(KG)(K)    8.4597
 GAMMAs            1.1145
 SON VEL,M/SEC     1244.9

 MOLE FRACTIONS

 *C              1.7364-4
 *CH             3.3423-5
 CH2             3.5176-5
 CH3             3.5320-5
 CH2OH           7.584-12
 CH3O            1.979-12
 CH4             5.3027-6
 CH3OH           2.668-13
 *CO             4.3945-1
 *CO2            2.0710-7
 COOH            2.543-12
 *C2             1.3055-4
 C2H             2.3693-3
 C2H2,acetylene  2.4075-2
 C2H2,vinylidene 1.0689-4
 CH2CO,ketene    2.9279-7
 O(CH)2O         3.062-15
 C2H3,vinyl      3.7469-6
 CH3CO,acetyl    7.578-11
 C2H4            8.5464-7
 C2H4O,ethylen-o 9.030-16
 CH3CHO,ethanal  8.744-13
 C2H5            2.359-10
 C2H6            6.363-12
 C2O             6.7834-6
 *C3             1.2670-3
 C3H3,1-propynl  3.7476-8
 C3H3,2-propynl  1.8033-5
 C3H4,allene     7.5327-8
 C3H4,propyne    1.5795-7
 C3H4,cyclo-     2.1389-9
 C3H5,allyl      2.274-10
 C3H6,propylene  6.995-12
 C3H6,cyclo-     5.783-14
 C3H7,n-propyl   7.580-16
 C3H7,i-propyl   4.637-16
 C3O2            2.2319-9
 *C4             6.4855-6
 C4H2,butadiyne  9.6066-4
 C4H4,1,3-cyclo- 4.545-11
 C4H6,butadiene  3.002-12
 C4H6,1butyne    5.251-13
 C4H6,2butyne    2.446-13
 C4H6,cyclo-     1.108-14
 *C5             3.6173-5
 C5H6,1,3cyclo-  7.421-14
 C6H2            4.0824-5
 C6H5,phenyl     6.582-13
 C6H6            9.843-14
 *H              1.1411-1
 HCO             3.9365-6
 HCCO            3.1445-7
 *H2             2.5042-1
 HCHO,formaldehy 5.4723-8
 HCOOH           1.812-13
 H2O             9.0961-7
 *O              4.2132-8
 *OH             1.6653-7
 *O2             5.995-14
 C(gr)           1.6671-1

  * THERMODYNAMIC PROPERTIES FITTED TO 20000.K









         THERMODYNAMIC EQUILIBRIUM COMBUSTION PROPERTIES AT ASSIGNED

                                   PRESSURES

 CASE =                

             REACTANT                       MOLES         ENERGY      TEMP
                                                         KJ/KG-MOL      K
 FUEL        C2H2,acetylene               1.0000000    228281.530    300.000
 OXIDANT     O2                           2.5000000        54.358    300.000

 O/F=    0.78780  %FUEL= 55.934810  R,EQ.RATIO= 3.900000  PHI,EQ.RATIO= 3.900000

 THERMODYNAMIC PROPERTIES

 P, BAR            1.0000
 T, K             3151.35
 RHO, KG/CU M    7.2291-2
 H, KJ/KG         4904.83
 U, KJ/KG         3521.54
 G, KJ/KG        -38732.5
 S, KJ/(KG)(K)    13.8472

 M, (1/n)          18.942
 MW, MOL WT        15.552
 (dLV/dLP)t      -1.03459
 (dLV/dLT)p        1.6216
 Cp, KJ/(KG)(K)    8.4273
 GAMMAs            1.1141
 SON VEL,M/SEC     1241.4

 MOLE FRACTIONS

 *C              1.6366-4
 *CH             3.2071-5
 CH2             3.4560-5
 CH3             3.5597-5
 CH2OH           7.579-12
 CH3O            1.971-12
 CH4             5.4686-6
 CH3OH           2.725-13
 *CO             4.2831-1
 *CO2            2.0146-7
 COOH            2.472-12
 *C2             1.2228-4
 C2H             2.2784-3
 C2H2,acetylene  2.3887-2
 C2H2,vinylidene 1.0493-4
 CH2CO,ketene    2.9012-7
 O(CH)2O         3.005-15
 C2H3,vinyl      3.7419-6
 CH3CO,acetyl    7.565-11
 C2H4            8.7543-7
 C2H4O,ethylen-o 9.131-16
 CH3CHO,ethanal  8.908-13
 C2H5            2.432-10
 C2H6            6.709-12
 C2O             6.4454-6
 *C3             1.1880-3
 C3H3,1-propynl  3.7092-8
 C3H3,2-propynl  1.7969-5
 C3H4,allene     7.6489-8
 C3H4,propyne    1.6046-7
 C3H4,cyclo-     2.1603-9
 C3H5,allyl      2.336-10
 C3H6,propylene  7.328-12
 C3H6,cyclo-     6.042-14
 C3H7,n-propyl   7.982-16
 C3H7,i-propyl   4.887-16
 C3O2            2.1312-9
 *C4             5.9997-6
 C4H2,butadiyne  9.4036-4
 C4H4,1,3-cyclo- 4.561-11
 C4H6,butadiene  3.116-12
 C4H6,1butyne    5.452-13
 C4H6,2butyne    2.543-13
 C4H6,cyclo-     1.150-14
 *C5             3.3440-5
 C5H6,1,3cyclo-  7.716-14
 C6H2            3.9419-5
 C6H5,phenyl     6.692-13
 C6H6            1.027-13
 *H              1.1197-1
 HCO             3.8394-6
 HCCO            3.0409-7
 *H2             2.5184-1
 HCHO,formaldehy 5.4427-8
 HCOOH           1.797-13
 H2O             9.1188-7
 *O              4.0086-8
 *OH             1.6233-7
 *O2             5.687-14
 C(gr)           1.7898-1

  * THERMODYNAMIC PROPERTIES FITTED TO 20000.K









         THERMODYNAMIC EQUILIBRIUM COMBUSTION PROPERTIES AT ASSIGNED

                                   PRESSURES

 CASE =                

             REACTANT                       MOLES         ENERGY      TEMP
                                                         KJ/KG-MOL      K
 FUEL        C2H2,acetylene               1.0000000    228281.530    300.000
 OXIDANT     O2                           2.5000000        54.358    300.000

 O/F=    0.76810  %FUEL= 56.557868  R,EQ.RATIO= 4.000000  PHI,EQ.RATIO= 4.000000

 THERMODYNAMIC PROPERTIES

 P, BAR            1.0000
 T, K             3146.36
 RHO, KG/CU M    7.2660-2
 H, KJ/KG         4959.44
 U, KJ/KG         3583.16
 G, KJ/KG        -38540.4
 S, KJ/(KG)(K)    13.8255

 M, (1/n)          19.008
 MW, MOL WT        15.384
 (dLV/dLP)t      -1.03441
 (dLV/dLT)p        1.6185
 Cp, KJ/(KG)(K)    8.3970
 GAMMAs            1.1136
 SON VEL,M/SEC     1238.0

 MOLE FRACTIONS

 *C              1.5454-4
 *CH             3.0811-5
 CH2             3.3969-5
 CH3             3.5861-5
 CH2OH           7.570-12
 CH3O            1.963-12
 CH4             5.6327-6
 CH3OH           2.779-13
 *CO             4.1771-1
 *CO2            1.9607-7
 COOH            2.404-12
 *C2             1.1477-4
 C2H             2.1935-3
 C2H2,acetylene  2.3703-2
 C2H2,vinylidene 1.0305-4
 CH2CO,ketene    2.8747-7
 O(CH)2O         2.950-15
 C2H3,vinyl      3.7363-6
 CH3CO,acetyl    7.548-11
 C2H4            8.9581-7
 C2H4O,ethylen-o 9.225-16
 CH3CHO,ethanal  9.066-13
 C2H5            2.503-10
 C2H6            7.058-12
 C2O             6.1328-6
 *C3             1.1161-3
 C3H3,1-propynl  3.6715-8
 C3H3,2-propynl  1.7903-5
 C3H4,allene     7.7609-8
 C3H4,propyne    1.6289-7
 C3H4,cyclo-     2.1807-9
 C3H5,allyl      2.396-10
 C3H6,propylene  7.662-12
 C3H6,cyclo-     6.302-14
 C3H7,n-propyl   8.388-16
 C3H7,i-propyl   5.140-16
 C3O2            2.0373-9
 *C4             5.5638-6
 C4H2,butadiyne  9.2097-4
 C4H4,1,3-cyclo- 4.574-11
 C4H6,butadiene  3.229-12
 C4H6,1butyne    5.651-13
 C4H6,2butyne    2.639-13
 C4H6,cyclo-     1.193-14
 *C5             3.0989-5
 C5H6,1,3cyclo-  8.010-14
 C6H2            3.8098-5
 C6H5,phenyl     6.799-13
 C6H6            1.070-13
 *H              1.0993-1
 HCO             3.7466-6
 HCCO            2.9431-7
 *H2             2.5320-1
 HCHO,formaldehy 5.4125-8
 HCOOH           1.781-13
 H2O             9.1379-7
 *O              3.8192-8
 *OH             1.5831-7
 *O2             5.402-14
 C(gr)           1.9064-1

  * THERMODYNAMIC PROPERTIES FITTED TO 20000.K



