
 *******************************************************************************

         NASA-GLENN CHEMICAL EQUILIBRIUM PROGRAM CEA2, MAY 21, 2004
                   BY  BONNIE MCBRIDE AND SANFORD GORDON
      REFS: NASA RP-1311, PART I, 1994 AND NASA RP-1311, PART II, 1996

 *******************************************************************************



 problem    phi,eq.ratio=2.1,2.2,2.3,2.4,2.5,2.6,2.7,2.8,2.9,3,3.1,3.2,3.3,3.4,3.
 5,3.6,
       hp   p,bar=1,  t,k=3800
 react
   fuel=C2H4 moles=1 t,k=300
   oxid=O2 moles=3 t,k=300
 output
      trace=1e-16 siunits short
 end




         THERMODYNAMIC EQUILIBRIUM COMBUSTION PROPERTIES AT ASSIGNED

                                   PRESSURES

 CASE =                

             REACTANT                       MOLES         ENERGY      TEMP
                                                         KJ/KG-MOL      K
 FUEL        C2H4                         1.0000000     52579.505    300.000
 OXIDANT     O2                           3.0000000        54.358    300.000

 O/F=    1.62950  %FUEL= 38.030071  R,EQ.RATIO= 2.100000  PHI,EQ.RATIO= 2.100000

 THERMODYNAMIC PROPERTIES

 P, BAR            1.0000
 T, K             2958.15
 RHO, KG/CU M    7.1509-2
 H, KJ/KG          713.84
 U, KJ/KG         -684.58
 G, KJ/KG        -43085.5
 S, KJ/(KG)(K)    14.8064

 M, (1/n)          17.588
 (dLV/dLP)t      -1.02388
 (dLV/dLT)p        1.4667
 Cp, KJ/(KG)(K)    6.6114
 GAMMAs            1.1493
 SON VEL,M/SEC     1267.8

 MOLE FRACTIONS

 *C              2.573-10
 *CH             6.541-11
 CH2             1.146-10
 CH3             2.071-10
 CH2OH           5.427-12
 CH3O            1.248-12
 CH4             5.074-11
 CH3OH           2.926-13
 *CO             4.4346-1
 *CO2            3.3406-2
 COOH            2.5086-7
 *C2             1.139-15
 C2H             3.850-14
 C2H2,acetylene  8.932-13
 C2H2,vinylidene 2.555-15
 CH2CO,ketene    1.778-12
 O(CH)2O         2.190-15
 C2H3,vinyl      1.149-16
 CH3CO,acetyl    3.948-16
 C2O             1.840-11
 C3O2            9.750-15
 *H              7.3364-2
 HCO             2.5915-6
 HCCO            1.111-12
 HO2             5.0274-7
 *H2             2.7927-1
 HCHO,formaldehy 5.0909-8
 HCOOH           2.5542-8
 H2O             1.5387-1
 H2O2            5.3878-8
 *O              2.0906-3
 *OH             1.4089-2
 *O2             4.5673-4
 O3              1.193-11

  * THERMODYNAMIC PROPERTIES FITTED TO 20000.K









         THERMODYNAMIC EQUILIBRIUM COMBUSTION PROPERTIES AT ASSIGNED

                                   PRESSURES

 CASE =                

             REACTANT                       MOLES         ENERGY      TEMP
                                                         KJ/KG-MOL      K
 FUEL        C2H4                         1.0000000     52579.505    300.000
 OXIDANT     O2                           3.0000000        54.358    300.000

 O/F=    1.55543  %FUEL= 39.132357  R,EQ.RATIO= 2.200000  PHI,EQ.RATIO= 2.200000

 THERMODYNAMIC PROPERTIES

 P, BAR            1.0000
 T, K             2901.33
 RHO, KG/CU M    7.1461-2
 H, KJ/KG          734.48
 U, KJ/KG         -664.88
 G, KJ/KG        -42632.0
 S, KJ/(KG)(K)    14.9471

 M, (1/n)          17.239
 (dLV/dLP)t      -1.01935
 (dLV/dLT)p        1.3818
 Cp, KJ/(KG)(K)    5.9463
 GAMMAs            1.1568
 SON VEL,M/SEC     1272.3

 MOLE FRACTIONS

 *C              2.055-10
 *CH             6.050-11
 CH2             1.320-10
 CH3             3.044-10
 CH2OH           5.974-12
 CH3O            1.322-12
 CH4             9.243-11
 CH3OH           3.911-13
 *CO             4.5310-1
 *CO2            2.7834-2
 COOH            1.9048-7
 *C2             1.181-15
 C2H             5.149-14
 C2H2,acetylene  1.642-12
 C2H2,vinylidene 4.092-15
 CH2CO,ketene    2.683-12
 O(CH)2O         2.449-15
 C2H3,vinyl      2.114-16
 CH3CO,acetyl    6.037-16
 C2H4            1.102-16
 C2O             1.914-11
 C3O2            1.270-14
 *H              6.4176-2
 HCO             2.4627-6
 HCCO            1.333-12
 HO2             2.2563-7
 *H2             3.0803-1
 HCHO,formaldehy 5.7261-8
 HCOOH           2.3036-8
 H2O             1.3609-1
 H2O2            2.8585-8
 *O              1.1182-3
 *OH             9.4508-3
 *O2             1.9662-4
 O3              2.947-12

  * THERMODYNAMIC PROPERTIES FITTED TO 20000.K









         THERMODYNAMIC EQUILIBRIUM COMBUSTION PROPERTIES AT ASSIGNED

                                   PRESSURES

 CASE =                

             REACTANT                       MOLES         ENERGY      TEMP
                                                         KJ/KG-MOL      K
 FUEL        C2H4                         1.0000000     52579.505    300.000
 OXIDANT     O2                           3.0000000        54.358    300.000

 O/F=    1.48780  %FUEL= 40.196115  R,EQ.RATIO= 2.300000  PHI,EQ.RATIO= 2.300000

 THERMODYNAMIC PROPERTIES

 P, BAR            1.0000
 T, K             2840.39
 RHO, KG/CU M    7.1588-2
 H, KJ/KG          754.40
 U, KJ/KG         -642.48
 G, KJ/KG        -42070.9
 S, KJ/(KG)(K)    15.0773

 M, (1/n)          16.907
 (dLV/dLP)t      -1.01558
 (dLV/dLT)p        1.3111
 Cp, KJ/(KG)(K)    5.3811
 GAMMAs            1.1649
 SON VEL,M/SEC     1275.6

 MOLE FRACTIONS

 *C              1.567-10
 *CH             5.382-11
 CH2             1.483-10
 CH3             4.443-10
 CH2OH           6.405-12
 CH3O            1.359-12
 CH4             1.698-10
 CH3OH           5.154-13
 *CO             4.6159-1
 *CO2            2.2903-2
 COOH            1.3978-7
 *C2             1.183-15
 C2H             6.783-14
 C2H2,acetylene  3.053-12
 C2H2,vinylidene 6.521-15
 CH2CO,ketene    4.059-12
 O(CH)2O         2.689-15
 C2H3,vinyl      3.892-16
 CH3CO,acetyl    9.171-16
 C2H4            2.633-16
 C2O             1.952-11
 C3O2            1.656-14
 *H              5.4680-2
 HCO             2.2890-6
 HCCO            1.577-12
 HO2             9.3817-8
 *H2             3.3636-1
 HCHO,formaldehy 6.3576-8
 HCOOH           2.0272-8
 H2O             1.1776-1
 H2O2            1.4175-8
 *O              5.6374-4
 *OH             6.0696-3
 *O2             7.8875-5
 O3              6.459-13

  * THERMODYNAMIC PROPERTIES FITTED TO 20000.K









         THERMODYNAMIC EQUILIBRIUM COMBUSTION PROPERTIES AT ASSIGNED

                                   PRESSURES

 CASE =                

             REACTANT                       MOLES         ENERGY      TEMP
                                                         KJ/KG-MOL      K
 FUEL        C2H4                         1.0000000     52579.505    300.000
 OXIDANT     O2                           3.0000000        54.358    300.000

 O/F=    1.42581  %FUEL= 41.223329  R,EQ.RATIO= 2.400000  PHI,EQ.RATIO= 2.400000

 THERMODYNAMIC PROPERTIES

 P, BAR            1.0000
 T, K             2775.93
 RHO, KG/CU M    7.1880-2
 H, KJ/KG          773.64
 U, KJ/KG         -617.57
 G, KJ/KG        -41412.8
 S, KJ/(KG)(K)    15.1972

 M, (1/n)          16.590
 (dLV/dLP)t      -1.01240
 (dLV/dLT)p        1.2515
 Cp, KJ/(KG)(K)    4.8934
 GAMMAs            1.1737
 SON VEL,M/SEC     1277.8

 MOLE FRACTIONS

 *C              1.147-10
 *CH             4.624-11
 CH2             1.635-10
 CH3             6.478-10
 CH2OH           6.694-12
 CH3O            1.355-12
 CH4             3.166-10
 CH3OH           6.706-13
 *CO             4.6903-1
 *CO2            1.8543-2
 COOH            9.8769-8
 *C2             1.155-15
 C2H             8.881-14
 C2H2,acetylene  5.798-12
 C2H2,vinylidene 1.044-14
 CH2CO,ketene    6.187-12
 O(CH)2O         2.901-15
 C2H3,vinyl      7.240-16
 CH3CO,acetyl    1.392-15
 C2H4            6.474-16
 C2O             1.961-11
 C3O2            2.175-14
 *H              4.5382-2
 HCO             2.0819-6
 HCCO            1.850-12
 HO2             3.5837-8
 *H2             3.6372-1
 HCHO,formaldehy 6.9733-8
 HCOOH           1.7349-8
 H2O             9.9310-2
 H2O2            6.5168-9
 *O              2.6670-4
 *OH             3.7164-3
 *O2             2.9233-5
 O3              1.240-13

  * THERMODYNAMIC PROPERTIES FITTED TO 20000.K









         THERMODYNAMIC EQUILIBRIUM COMBUSTION PROPERTIES AT ASSIGNED

                                   PRESSURES

 CASE =                

             REACTANT                       MOLES         ENERGY      TEMP
                                                         KJ/KG-MOL      K
 FUEL        C2H4                         1.0000000     52579.505    300.000
 OXIDANT     O2                           3.0000000        54.358    300.000

 O/F=    1.36878  %FUEL= 42.215852  R,EQ.RATIO= 2.500000  PHI,EQ.RATIO= 2.500000

 THERMODYNAMIC PROPERTIES

 P, BAR            1.0000
 T, K             2708.35
 RHO, KG/CU M    7.2333-2
 H, KJ/KG          792.23
 U, KJ/KG         -590.27
 G, KJ/KG        -40665.0
 S, KJ/(KG)(K)    15.3072

 M, (1/n)          16.288
 (dLV/dLP)t      -1.00973
 (dLV/dLT)p        1.2008
 Cp, KJ/(KG)(K)    4.4660
 GAMMAs            1.1836
 SON VEL,M/SEC     1279.2

 MOLE FRACTIONS

 *C              8.095-11
 *CH             3.862-11
 CH2             1.779-10
 CH3             9.513-10
 CH2OH           6.826-12
 CH3O            1.314-12
 CH4             6.048-10
 CH3OH           8.634-13
 *CO             4.7556-1
 *CO2            1.4673-2
 COOH            6.6726-8
 *C2             1.114-15
 C2H             1.173-13
 C2H2,acetylene  1.143-11
 C2H2,vinylidene 1.705-14
 CH2CO,ketene    9.591-12
 O(CH)2O         3.081-15
 C2H3,vinyl      1.383-15
 CH3CO,acetyl    2.130-15
 C2H4            1.668-15
 C2O             1.955-11
 C3O2            2.901-14
 *H              3.6668-2
 HCO             1.8532-6
 HCCO            2.167-12
 HO2             1.2373-8
 *H2             3.8974-1
 HCHO,formaldehy 7.5641-8
 HCOOH           1.4352-8
 H2O             8.1084-2
 H2O2            2.7352-9
 *O              1.1730-4
 *OH             2.1519-3
 *O2             9.8451-6
 O3              2.033-14

  * THERMODYNAMIC PROPERTIES FITTED TO 20000.K









         THERMODYNAMIC EQUILIBRIUM COMBUSTION PROPERTIES AT ASSIGNED

                                   PRESSURES

 CASE =                

             REACTANT                       MOLES         ENERGY      TEMP
                                                         KJ/KG-MOL      K
 FUEL        C2H4                         1.0000000     52579.505    300.000
 OXIDANT     O2                           3.0000000        54.358    300.000

 O/F=    1.31613  %FUEL= 43.175412  R,EQ.RATIO= 2.600000  PHI,EQ.RATIO= 2.600000

 THERMODYNAMIC PROPERTIES

 P, BAR            1.0000
 T, K             2637.87
 RHO, KG/CU M    7.2949-2
 H, KJ/KG          810.19
 U, KJ/KG         -560.64
 G, KJ/KG        -39832.3
 S, KJ/(KG)(K)    15.4073

 M, (1/n)          16.000
 (dLV/dLP)t      -1.00748
 (dLV/dLT)p        1.1577
 Cp, KJ/(KG)(K)    4.0887
 GAMMAs            1.1946
 SON VEL,M/SEC     1279.7

 MOLE FRACTIONS

 *C              5.559-11
 *CH             3.166-11
 CH2             1.935-10
 CH3             1.4273-9
 CH2OH           6.799-12
 CH3O            1.239-12
 CH4             1.2037-9
 CH3OH           1.103-12
 *CO             4.8127-1
 *CO2            1.1212-2
 COOH            4.2541-8
 *C2             1.084-15
 C2H             1.600-13
 C2H2,acetylene  2.404-11
 C2H2,vinylidene 2.913-14
 CH2CO,ketene    1.535-11
 O(CH)2O         3.225-15
 C2H3,vinyl      2.789-15
 CH3CO,acetyl    3.335-15
 C2H4            4.633-15
 CH3CHO,ethanal  1.528-16
 C2O             1.956-11
 C3O2            3.985-14
 *H              2.8806-2
 HCO             1.6137-6
 HCCO            2.569-12
 HO2             3.7520-9
 *H2             4.1416-1
 HCHO,formaldehy 8.1243-8
 HCOOH           1.1347-8
 H2O             6.3341-2
 H2O2            1.0199-9
 *O              4.7182-5
 *OH             1.1614-3
 *O2             2.9265-6
 O3              2.724-15

  * THERMODYNAMIC PROPERTIES FITTED TO 20000.K









         THERMODYNAMIC EQUILIBRIUM COMBUSTION PROPERTIES AT ASSIGNED

                                   PRESSURES

 CASE =                

             REACTANT                       MOLES         ENERGY      TEMP
                                                         KJ/KG-MOL      K
 FUEL        C2H4                         1.0000000     52579.505    300.000
 OXIDANT     O2                           3.0000000        54.358    300.000

 O/F=    1.26739  %FUEL= 44.103623  R,EQ.RATIO= 2.700000  PHI,EQ.RATIO= 2.700000

 THERMODYNAMIC PROPERTIES

 P, BAR            1.0000
 T, K             2564.62
 RHO, KG/CU M    7.3733-2
 H, KJ/KG          827.58
 U, KJ/KG         -528.67
 G, KJ/KG        -38917.6
 S, KJ/(KG)(K)    15.4975

 M, (1/n)          15.722
 (dLV/dLP)t      -1.00562
 (dLV/dLT)p        1.1212
 Cp, KJ/(KG)(K)    3.7559
 GAMMAs            1.2068
 SON VEL,M/SEC     1279.4

 MOLE FRACTIONS

 *C              3.782-11
 *CH             2.599-11
 CH2             2.152-10
 CH3             2.2445-9
 CH2OH           6.619-12
 CH3O            1.136-12
 CH4             2.5672-9
 CH3OH           1.402-12
 *CO             4.8628-1
 *CO2            8.0816-3
 COOH            2.4971-8
 *C2             1.111-15
 C2H             2.363-13
 C2H2,acetylene  5.667-11
 C2H2,vinylidene 5.467-14
 CH2CO,ketene    2.602-11
 O(CH)2O         3.332-15
 C2H3,vinyl      6.236-15
 CH3CO,acetyl    5.489-15
 C2H4            1.464-14
 CH3CHO,ethanal  3.193-16
 C2O             2.006-11
 C3O2            5.778-14
 *H              2.1961-2
 HCO             1.3735-6
 HCCO            3.153-12
 HO2             9.480-10
 *H2             4.3683-1
 HCHO,formaldehy 8.6504-8
 HCOOH           8.3820-9
 H2O             4.6260-2
 H2O2            3.212-10
 *O              1.6857-5
 *OH             5.6906-4
 *O2             7.2814-7
 O3              2.749-16

  * THERMODYNAMIC PROPERTIES FITTED TO 20000.K









         THERMODYNAMIC EQUILIBRIUM COMBUSTION PROPERTIES AT ASSIGNED

                                   PRESSURES

 CASE =                

             REACTANT                       MOLES         ENERGY      TEMP
                                                         KJ/KG-MOL      K
 FUEL        C2H4                         1.0000000     52579.505    300.000
 OXIDANT     O2                           3.0000000        54.358    300.000

 O/F=    1.22212  %FUEL= 45.001997  R,EQ.RATIO= 2.800000  PHI,EQ.RATIO= 2.800000

 THERMODYNAMIC PROPERTIES

 P, BAR            1.0000
 T, K             2488.72
 RHO, KG/CU M    7.4694-2
 H, KJ/KG          844.40
 U, KJ/KG         -494.39
 G, KJ/KG        -37923.3
 S, KJ/(KG)(K)    15.5774

 M, (1/n)          15.456
 (dLV/dLP)t      -1.00410
 (dLV/dLT)p        1.0909
 Cp, KJ/(KG)(K)    3.4656
 GAMMAs            1.2204
 SON VEL,M/SEC     1278.2

 MOLE FRACTIONS

 *C              2.671-11
 *CH             2.243-11
 CH2             2.577-10
 CH3             3.9088-9
 CH2OH           6.300-12
 CH3O            1.014-12
 CH4             6.2207-9
 CH3OH           1.780-12
 *CO             4.9067-1
 *CO2            5.2124-3
 COOH            1.2777-8
 *C2             1.327-15
 C2H             4.189-13
 C2H2,acetylene  1.671-10
 C2H2,vinylidene 1.254-13
 CH2CO,ketene    4.942-11
 O(CH)2O         3.402-15
 C2H3,vinyl      1.724-14
 CH3CO,acetyl    1.004-14
 C2H4            5.884-14
 CH3CHO,ethanal  7.545-16
 C2O             2.221-11
 C3O2            9.339-14
 *H              1.6211-2
 HCO             1.1414-6
 HCCO            4.225-12
 HO2             1.783-10
 *H2             4.5770-1
 HCHO,formaldehy 9.1418-8
 HCOOH           5.4910-9
 H2O             2.9964-2
 H2O2            7.647-11
 *O              5.0399-6
 *OH             2.3917-4
 *O2             1.3542-7

  * THERMODYNAMIC PROPERTIES FITTED TO 20000.K









         THERMODYNAMIC EQUILIBRIUM COMBUSTION PROPERTIES AT ASSIGNED

                                   PRESSURES

 CASE =                

             REACTANT                       MOLES         ENERGY      TEMP
                                                         KJ/KG-MOL      K
 FUEL        C2H4                         1.0000000     52579.505    300.000
 OXIDANT     O2                           3.0000000        54.358    300.000

 O/F=    1.17998  %FUEL= 45.871951  R,EQ.RATIO= 2.900000  PHI,EQ.RATIO= 2.900000

 THERMODYNAMIC PROPERTIES

 P, BAR            1.0000
 T, K             2410.41
 RHO, KG/CU M    7.5843-2
 H, KJ/KG          860.69
 U, KJ/KG         -457.83
 G, KJ/KG        -36851.3
 S, KJ/(KG)(K)    15.6455

 M, (1/n)          15.200
 (dLV/dLP)t      -1.00290
 (dLV/dLT)p        1.0662
 Cp, KJ/(KG)(K)    3.2172
 GAMMAs            1.2351
 SON VEL,M/SEC     1276.1

 MOLE FRACTIONS

 *C              2.307-11
 *CH             2.402-11
 CH2             3.930-10
 CH3             8.9517-9
 CH2OH           5.866-12
 CH3O            8.805-13
 CH4             2.0402-8
 CH3OH           2.263-12
 *CO             4.9455-1
 *CO2            2.5386-3
 COOH            4.8013-9
 *C2             2.580-15
 C2H             1.251-12
 C2H2,acetylene  8.676-10
 C2H2,vinylidene 4.937-13
 CH2CO,ketene    1.250-10
 O(CH)2O         3.437-15
 C2H3,vinyl      8.296-14
 CH3CO,acetyl    2.424-14
 C2H4            4.251-13
 CH3CHO,ethanal  2.402-15
 C2O             3.137-11
 C3H3,2-propynl  1.293-16
 C3O2            1.997-13
 *H              1.1559-2
 HCO             9.2487-7
 HCCO            7.320-12
 HO2             1.765-11
 *H2             4.7675-1
 HCHO,formaldehy 9.5998-8
 HCOOH           2.6940-9
 H2O             1.4529-2
 H2O2            9.759-12
 *O              1.0570-6
 *OH             7.2502-5
 *O2             1.3311-8

  * THERMODYNAMIC PROPERTIES FITTED TO 20000.K









         THERMODYNAMIC EQUILIBRIUM COMBUSTION PROPERTIES AT ASSIGNED

                                   PRESSURES

 CASE =                

             REACTANT                       MOLES         ENERGY      TEMP
                                                         KJ/KG-MOL      K
 FUEL        C2H4                         1.0000000     52579.505    300.000
 OXIDANT     O2                           3.0000000        54.358    300.000

 O/F=    1.14065  %FUEL= 46.714812  R,EQ.RATIO= 3.000000  PHI,EQ.RATIO= 3.000000

 THERMODYNAMIC PROPERTIES

 P, BAR            1.0000
 T, K             2330.12
 RHO, KG/CU M    7.7191-2
 H, KJ/KG          876.47
 U, KJ/KG         -419.02
 G, KJ/KG        -35693.4
 S, KJ/(KG)(K)    15.6944

 M, (1/n)          14.955
 (dLV/dLP)t      -1.00205
 (dLV/dLT)p        1.0468
 Cp, KJ/(KG)(K)    3.0111
 GAMMAs            1.2505
 SON VEL,M/SEC     1272.8

 MOLE FRACTIONS

 *C              1.7133-9
 *CH             2.2471-9
 CH2             5.3913-8
 CH3             1.9083-6
 CH2OH           5.344-12
 CH3O            7.438-13
 CH4             6.4273-6
 CH3OH           2.889-12
 *CO             4.9796-1
 *CO2            1.3210-5
 COOH            1.872-11
 *C2             4.062-11
 C2H             3.1394-8
 C2H2,acetylene  3.9740-5
 C2H2,vinylidene 1.6692-8
 CH2CO,ketene    2.9826-8
 O(CH)2O         3.439-15
 C2H3,vinyl      3.4796-9
 CH3CO,acetyl    5.477-12
 C2H4            2.7710-8
 C2H4O,ethylen-o 1.513-16
 CH3CHO,ethanal  7.309-13
 C2H5            4.107-12
 C2H6            2.139-12
 C2O             3.9897-9
 *C3             5.856-11
 C3H3,1-propynl  6.200-13
 C3H3,2-propynl  1.2926-9
 C3H4,allene     4.613-11
 C3H4,propyne    1.070-10
 C3H4,cyclo-     4.134-13
 C3H5,allyl      2.386-13
 C3H6,propylene  7.339-14
 C3H6,cyclo-     3.586-16
 C3O2            3.996-11
 *C4             2.186-15
 C4H2,butadiyne  1.3026-9
 C4H4,1,3-cyclo- 2.625-16
 C4H6,butadiene  7.362-16
 *C5             1.253-15
 C6H2            4.488-14
 *H              7.9484-3
 HCO             7.3011-7
 HCCO            1.1590-9
 HO2             1.831-16
 *H2             4.9396-1
 HCHO,formaldehy 1.0025-7
 HCOOH           1.401-11
 H2O             7.4618-5
 H2O2            1.331-16
 *O              2.1890-9
 *OH             2.2363-7
 *O2             1.376-13

  * THERMODYNAMIC PROPERTIES FITTED TO 20000.K









         THERMODYNAMIC EQUILIBRIUM COMBUSTION PROPERTIES AT ASSIGNED

                                   PRESSURES

 CASE =                

             REACTANT                       MOLES         ENERGY      TEMP
                                                         KJ/KG-MOL      K
 FUEL        C2H4                         1.0000000     52579.505    300.000
 OXIDANT     O2                           3.0000000        54.358    300.000

 O/F=    1.10385  %FUEL= 47.531825  R,EQ.RATIO= 3.100000  PHI,EQ.RATIO= 3.100000

 THERMODYNAMIC PROPERTIES

 P, BAR            1.0000
 T, K             2289.07
 RHO, KG/CU M    7.8547-2
 H, KJ/KG          891.77
 U, KJ/KG         -381.36
 G, KJ/KG        -35007.8
 S, KJ/(KG)(K)    15.6831

 M, (1/n)          14.949
 MW, MOL WT        14.770
 (dLV/dLP)t      -1.00169
 (dLV/dLT)p        1.0390
 Cp, KJ/(KG)(K)    3.0927
 GAMMAs            1.2383
 SON VEL,M/SEC     1255.6

 MOLE FRACTIONS

 *C              6.9071-9
 *CH             1.0235-8
 CH2             3.0099-7
 CH3             1.3478-5
 CH2OH           4.892-12
 CH3O            6.541-13
 CH4             5.5931-5
 CH3OH           3.165-12
 *CO             4.8435-1
 *CO2            1.8454-6
 COOH            2.234-12
 *C2             1.1750-9
 C2H             1.1650-6
 C2H2,acetylene  2.0343-3
 C2H2,vinylidene 7.2533-7
 CH2CO,ketene    2.2014-7
 O(CH)2O         3.257-15
 C2H3,vinyl      1.6945-7
 CH3CO,acetyl    3.918-11
 C2H4            1.7075-6
 C2H4O,ethylen-o 1.137-15
 CH3CHO,ethanal  6.123-12
 C2H5            2.402-10
 C2H6            1.520-10
 C2O             2.1082-8
 *C3             1.3501-8
 C3H3,1-propynl  2.087-10
 C3H3,2-propynl  4.8123-7
 C3H4,allene     1.9732-8
 C3H4,propyne    4.6081-8
 C3H4,cyclo-     1.634-10
 C3H5,allyl      1.050-10
 C3H6,propylene  3.747-11
 C3H6,cyclo-     1.768-13
 C3H7,n-propyl   1.641-15
 C3H7,i-propyl   1.212-15
 C3H8            1.027-15
 C3O2            2.645-10
 *C4             3.292-12
 C4H2,butadiyne  3.3984-6
 C4H4,1,3-cyclo- 7.432-13
 C4H6,butadiene  2.685-12
 C4H6,1butyne    3.400-13
 C4H6,2butyne    2.197-13
 C4H6,cyclo-     7.675-15
 C4H8,1-butene   2.332-16
 *C5             1.466-11
 C5H6,1,3cyclo-  7.071-14
 C6H2            5.9681-9
 C6H5,phenyl     2.840-14
 C6H6            2.116-13
 *H              6.4052-3
 HCO             6.2156-7
 HCCO            6.8750-9
 *H2             4.9512-1
 HCHO,formaldehy 9.9007-8
 HCOOH           1.949-12
 H2O             1.0500-5
 *O              1.898-10
 *OH             2.3970-8
 *O2             1.682-15
 C(gr)           1.1996-2

  * THERMODYNAMIC PROPERTIES FITTED TO 20000.K









         THERMODYNAMIC EQUILIBRIUM COMBUSTION PROPERTIES AT ASSIGNED

                                   PRESSURES

 CASE =                

             REACTANT                       MOLES         ENERGY      TEMP
                                                         KJ/KG-MOL      K
 FUEL        C2H4                         1.0000000     52579.505    300.000
 OXIDANT     O2                           3.0000000        54.358    300.000

 O/F=    1.06936  %FUEL= 48.324163  R,EQ.RATIO= 3.200000  PHI,EQ.RATIO= 3.200000

 THERMODYNAMIC PROPERTIES

 P, BAR            1.0000
 T, K             2260.24
 RHO, KG/CU M    7.9501-2
 H, KJ/KG          906.61
 U, KJ/KG         -351.24
 G, KJ/KG        -34511.7
 S, KJ/(KG)(K)    15.6702

 M, (1/n)          14.940
 MW, MOL WT        14.527
 (dLV/dLP)t      -1.00148
 (dLV/dLT)p        1.0343
 Cp, KJ/(KG)(K)    3.0449
 GAMMAs            1.2407
 SON VEL,M/SEC     1249.3

 MOLE FRACTIONS

 *C              4.2084-9
 *CH             6.8364-9
 CH2             2.3376-7
 CH3             1.2455-5
 CH2OH           4.583-12
 CH3O            5.953-13
 CH4             6.0342-5
 CH3OH           3.390-12
 *CO             4.6918-1
 *CO2            1.9526-6
 COOH            2.116-12
 *C2             6.670-10
 C2H             7.9478-7
 C2H2,acetylene  1.7582-3
 C2H2,vinylidene 5.5666-7
 CH2CO,ketene    2.0837-7
 O(CH)2O         3.103-15
 C2H3,vinyl      1.4174-7
 CH3CO,acetyl    3.638-11
 C2H4            1.6998-6
 C2H4O,ethylen-o 1.098-15
 CH3CHO,ethanal  6.398-12
 C2H5            2.311-10
 C2H6            1.690-10
 C2O             1.5557-8
 *C3             7.7022-9
 C3H3,1-propynl  1.583-10
 C3H3,2-propynl  3.9266-7
 C3H4,allene     1.7868-8
 C3H4,propyne    4.1933-8
 C3H4,cyclo-     1.398-10
 C3H5,allyl      9.747-11
 C3H6,propylene  3.884-11
 C3H6,cyclo-     1.788-13
 C3H7,n-propyl   1.626-15
 C3H7,i-propyl   1.211-15
 C3H8            1.178-15
 C3O2            2.287-10
 *C4             1.635-12
 C4H2,butadiyne  2.5309-6
 C4H4,1,3-cyclo- 5.915-13
 C4H6,butadiene  2.586-12
 C4H6,1butyne    3.192-13
 C4H6,2butyne    2.095-13
 C4H6,cyclo-     7.241-15
 C4H8,1-butene   2.495-16
 C4H8,tr2-butene 1.026-16
 C4H8,isobutene  1.077-16
 *C5             7.193-12
 C5H6,1,3cyclo-  6.767-14
 C6H2            3.8302-9
 C6H5,phenyl     2.357-14
 C6H6            2.102-13
 *H              5.4582-3
 HCO             5.4864-7
 HCCO            5.5353-9
 *H2             4.9583-1
 HCHO,formaldehy 9.7663-8
 HCOOH           2.070-12
 H2O             1.1296-5
 *O              1.428-10
 *OH             2.1101-8
 *O2             1.363-15
 C(gr)           2.7685-2

  * THERMODYNAMIC PROPERTIES FITTED TO 20000.K









         THERMODYNAMIC EQUILIBRIUM COMBUSTION PROPERTIES AT ASSIGNED

                                   PRESSURES

 CASE =                

             REACTANT                       MOLES         ENERGY      TEMP
                                                         KJ/KG-MOL      K
 FUEL        C2H4                         1.0000000     52579.505    300.000
 OXIDANT     O2                           3.0000000        54.358    300.000

 O/F=    1.03695  %FUEL= 49.092926  R,EQ.RATIO= 3.300000  PHI,EQ.RATIO= 3.300000

 THERMODYNAMIC PROPERTIES

 P, BAR            1.0000
 T, K             2232.17
 RHO, KG/CU M    8.0450-2
 H, KJ/KG          921.01
 U, KJ/KG         -322.01
 G, KJ/KG        -34028.2
 S, KJ/(KG)(K)    15.6570

 M, (1/n)          14.931
 MW, MOL WT        14.298
 (dLV/dLP)t      -1.00130
 (dLV/dLT)p        1.0301
 Cp, KJ/(KG)(K)    3.0037
 GAMMAs            1.2429
 SON VEL,M/SEC     1243.0

 MOLE FRACTIONS

 *C              2.5682-9
 *CH             4.5705-9
 CH2             1.8158-7
 CH3             1.1502-5
 CH2OH           4.293-12
 CH3O            5.418-13
 CH4             6.5027-5
 CH3OH           3.627-12
 *CO             4.5493-1
 *CO2            2.0685-6
 COOH            2.006-12
 *C2             3.792-10
 C2H             5.4270-7
 C2H2,acetylene  1.5195-3
 C2H2,vinylidene 4.2725-7
 CH2CO,ketene    1.9726-7
 O(CH)2O         2.958-15
 C2H3,vinyl      1.1851-7
 CH3CO,acetyl    3.377-11
 C2H4            1.6901-6
 C2H4O,ethylen-o 1.060-15
 CH3CHO,ethanal  6.679-12
 C2H5            2.220-10
 C2H6            1.874-10
 C2O             1.1497-8
 *C3             4.4001-9
 C3H3,1-propynl  1.200-10
 C3H3,2-propynl  3.2024-7
 C3H4,allene     1.6163-8
 C3H4,propyne    3.8118-8
 C3H4,cyclo-     1.194-10
 C3H5,allyl      9.032-11
 C3H6,propylene  4.018-11
 C3H6,cyclo-     1.804-13
 C3H7,n-propyl   1.608-15
 C3H7,i-propyl   1.208-15
 C3H8            1.347-15
 C3O2            1.981-10
 *C4             8.136-13
 C4H2,butadiyne  1.8851-6
 C4H4,1,3-cyclo- 4.703-13
 C4H6,butadiene  2.487-12
 C4H6,1butyne    2.991-13
 C4H6,2butyne    1.995-13
 C4H6,cyclo-     6.818-15
 C4H8,1-butene   2.662-16
 C4H8,tr2-butene 1.103-16
 C4H8,isobutene  1.162-16
 *C5             3.534-12
 C5H6,1,3cyclo-  6.464-14
 C6H2            2.4591-9
 C6H5,phenyl     1.954-14
 C6H6            2.083-13
 *H              4.6541-3
 HCO             4.8462-7
 HCCO            4.4604-9
 *H2             4.9642-1
 HCHO,formaldehy 9.6346-8
 HCOOH           2.200-12
 H2O             1.2152-5
 *O              1.076-10
 *OH             1.8590-8
 *O2             1.107-15
 C(gr)           4.2379-2

  * THERMODYNAMIC PROPERTIES FITTED TO 20000.K









         THERMODYNAMIC EQUILIBRIUM COMBUSTION PROPERTIES AT ASSIGNED

                                   PRESSURES

 CASE =                

             REACTANT                       MOLES         ENERGY      TEMP
                                                         KJ/KG-MOL      K
 FUEL        C2H4                         1.0000000     52579.505    300.000
 OXIDANT     O2                           3.0000000        54.358    300.000

 O/F=    1.00645  %FUEL= 49.839151  R,EQ.RATIO= 3.400000  PHI,EQ.RATIO= 3.400000

 THERMODYNAMIC PROPERTIES

 P, BAR            1.0000
 T, K             2204.89
 RHO, KG/CU M    8.1393-2
 H, KJ/KG          934.98
 U, KJ/KG         -293.63
 G, KJ/KG        -33557.6
 S, KJ/(KG)(K)    15.6437

 M, (1/n)          14.921
 MW, MOL WT        14.083
 (dLV/dLP)t      -1.00115
 (dLV/dLT)p        1.0265
 Cp, KJ/(KG)(K)    2.9685
 GAMMAs            1.2448
 SON VEL,M/SEC     1236.7

 MOLE FRACTIONS

 *C              1.5706-9
 *CH             3.0602-9
 CH2             1.4112-7
 CH3             1.0618-5
 CH2OH           4.020-12
 CH3O            4.931-13
 CH4             6.9999-5
 CH3OH           3.877-12
 *CO             4.4152-1
 *CO2            2.1937-6
 COOH            1.904-12
 *C2             2.161-10
 C2H             3.7108-7
 C2H2,acetylene  1.3135-3
 C2H2,vinylidene 3.2809-7
 CH2CO,ketene    1.8678-7
 O(CH)2O         2.822-15
 C2H3,vinyl      9.9073-8
 CH3CO,acetyl    3.135-11
 C2H4            1.6787-6
 C2H4O,ethylen-o 1.023-15
 CH3CHO,ethanal  6.966-12
 C2H5            2.130-10
 C2H6            2.074-10
 C2O             8.5123-9
 *C3             2.5189-9
 C3H3,1-propynl  9.101-11
 C3H3,2-propynl  2.6117-7
 C3H4,allene     1.4610-8
 C3H4,propyne    3.4624-8
 C3H4,cyclo-     1.020-10
 C3H5,allyl      8.360-11
 C3H6,propylene  4.148-11
 C3H6,cyclo-     1.817-13
 C3H7,n-propyl   1.586-15
 C3H7,i-propyl   1.202-15
 C3H8            1.536-15
 C3O2            1.719-10
 *C4             4.059-13
 C4H2,butadiyne  1.4050-6
 C4H4,1,3-cyclo- 3.739-13
 C4H6,butadiene  2.389-12
 C4H6,1butyne    2.797-13
 C4H6,2butyne    1.896-13
 C4H6,cyclo-     6.409-15
 C4H8,1-butene   2.831-16
 C4H8,cis2-buten 1.050-16
 C4H8,tr2-butene 1.182-16
 C4H8,isobutene  1.250-16
 *C5             1.741-12
 C5H6,1,3cyclo-  6.164-14
 C6H2            1.5804-9
 C6H5,phenyl     1.618-14
 C6H6            2.061-13
 *H              3.9718-3
 HCO             4.2843-7
 HCCO            3.5983-9
 *H2             4.9693-1
 HCHO,formaldehy 9.5057-8
 HCOOH           2.338-12
 H2O             1.3072-5
 *O              8.129-11
 *OH             1.6393-8
 *O2             9.008-16
 C(gr)           5.6167-2

  * THERMODYNAMIC PROPERTIES FITTED TO 20000.K









         THERMODYNAMIC EQUILIBRIUM COMBUSTION PROPERTIES AT ASSIGNED

                                   PRESSURES

 CASE =                

             REACTANT                       MOLES         ENERGY      TEMP
                                                         KJ/KG-MOL      K
 FUEL        C2H4                         1.0000000     52579.505    300.000
 OXIDANT     O2                           3.0000000        54.358    300.000

 O/F=    0.97770  %FUEL= 50.563815  R,EQ.RATIO= 3.500000  PHI,EQ.RATIO= 3.500000

 THERMODYNAMIC PROPERTIES

 P, BAR            1.0000
 T, K             2178.38
 RHO, KG/CU M    8.2329-2
 H, KJ/KG          948.55
 U, KJ/KG         -266.10
 G, KJ/KG        -33100.0
 S, KJ/(KG)(K)    15.6302

 M, (1/n)          14.911
 MW, MOL WT        13.881
 (dLV/dLP)t      -1.00101
 (dLV/dLT)p        1.0233
 Cp, KJ/(KG)(K)    2.9387
 GAMMAs            1.2464
 SON VEL,M/SEC     1230.4

 MOLE FRACTIONS

 *C              9.632-10
 *CH             2.0530-9
 CH2             1.0977-7
 CH3             9.7995-6
 CH2OH           3.764-12
 CH3O            4.489-13
 CH4             7.5269-5
 CH3OH           4.141-12
 *CO             4.2887-1
 *CO2            2.3284-6
 COOH            1.809-12
 *C2             1.235-10
 C2H             2.5420-7
 C2H2,acetylene  1.1359-3
 C2H2,vinylidene 2.5216-7
 CH2CO,ketene    1.7691-7
 O(CH)2O         2.693-15
 C2H3,vinyl      8.2838-8
 CH3CO,acetyl    2.911-11
 C2H4            1.6659-6
 C2H4O,ethylen-o 9.860-16
 CH3CHO,ethanal  7.260-12
 C2H5            2.041-10
 C2H6            2.291-10
 C2O             6.3157-9
 *C3             1.4460-9
 C3H3,1-propynl  6.905-11
 C3H3,2-propynl  2.1305-7
 C3H4,allene     1.3200-8
 C3H4,propyne    3.1434-8
 C3H4,cyclo-     8.707-11
 C3H5,allyl      7.731-11
 C3H6,propylene  4.275-11
 C3H6,cyclo-     1.827-13
 C3H7,n-propyl   1.562-15
 C3H7,i-propyl   1.193-15
 C3H8            1.745-15
 C3O2            1.494-10
 *C4             2.033-13
 C4H2,butadiyne  1.0482-6
 C4H4,1,3-cyclo- 2.972-13
 C4H6,butadiene  2.293-12
 C4H6,1butyne    2.613-13
 C4H6,2butyne    1.800-13
 C4H6,cyclo-     6.018-15
 C4H8,1-butene   3.004-16
 C4H8,cis2-buten 1.122-16
 C4H8,tr2-butene 1.263-16
 C4H8,isobutene  1.342-16
 *C5             8.605-13
 C5H6,1,3cyclo-  5.870-14
 C6H2            1.0174-9
 C6H5,phenyl     1.340-14
 C6H6            2.036-13
 *H              3.3928-3
 HCO             3.7910-7
 HCCO            2.9067-9
 *H2             4.9736-1
 HCHO,formaldehy 9.3798-8
 HCOOH           2.485-12
 H2O             1.4057-5
 *O              6.152-11
 *OH             1.4471-8
 *O2             7.345-16
 C(gr)           6.9132-2

  * THERMODYNAMIC PROPERTIES FITTED TO 20000.K









         THERMODYNAMIC EQUILIBRIUM COMBUSTION PROPERTIES AT ASSIGNED

                                   PRESSURES

 CASE =                

             REACTANT                       MOLES         ENERGY      TEMP
                                                         KJ/KG-MOL      K
 FUEL        C2H4                         1.0000000     52579.505    300.000
 OXIDANT     O2                           3.0000000        54.358    300.000

 O/F=    0.95054  %FUEL= 51.267839  R,EQ.RATIO= 3.600000  PHI,EQ.RATIO= 3.600000

 THERMODYNAMIC PROPERTIES

 P, BAR            1.0000
 T, K             2152.64
 RHO, KG/CU M    8.3257-2
 H, KJ/KG          961.73
 U, KJ/KG         -239.37
 G, KJ/KG        -32655.2
 S, KJ/(KG)(K)    15.6166

 M, (1/n)          14.901
 MW, MOL WT        13.689
 (dLV/dLP)t      -1.00090
 (dLV/dLT)p        1.0206
 Cp, KJ/(KG)(K)    2.9138
 GAMMAs            1.2477
 SON VEL,M/SEC     1224.2

 MOLE FRACTIONS

 *C              5.926-10
 *CH             1.3806-9
 CH2             8.5489-8
 CH3             9.0435-6
 CH2OH           3.525-12
 CH3O            4.088-13
 CH4             8.0851-5
 CH3OH           4.418-12
 *CO             4.1694-1
 *CO2            2.4729-6
 COOH            1.720-12
 *C2             7.083-11
 C2H             1.7453-7
 C2H2,acetylene  9.8297-4
 C2H2,vinylidene 1.9404-7
 CH2CO,ketene    1.6761-7
 O(CH)2O         2.572-15
 C2H3,vinyl      6.9297-8
 CH3CO,acetyl    2.703-11
 C2H4            1.6520-6
 C2H4O,ethylen-o 9.505-16
 CH3CHO,ethanal  7.560-12
 C2H5            1.954-10
 C2H6            2.526-10
 C2O             4.6972-9
 *C3             8.328-10
 C3H3,1-propynl  5.245-11
 C3H3,2-propynl  1.7390-7
 C3H4,allene     1.1923-8
 C3H4,propyne    2.8530-8
 C3H4,cyclo-     7.434-11
 C3H5,allyl      7.145-11
 C3H6,propylene  4.399-11
 C3H6,cyclo-     1.835-13
 C3H7,n-propyl   1.535-15
 C3H7,i-propyl   1.183-15
 C3H8            1.979-15
 C3O2            1.300-10
 *C4             1.022-13
 C4H2,butadiyne  7.8318-7
 C4H4,1,3-cyclo- 2.364-13
 C4H6,butadiene  2.198-12
 C4H6,1butyne    2.438-13
 C4H6,2butyne    1.706-13
 C4H6,cyclo-     5.644-15
 C4H8,1-butene   3.179-16
 C4H8,cis2-buten 1.197-16
 C4H8,tr2-butene 1.347-16
 C4H8,isobutene  1.436-16
 *C5             4.272-13
 C5H6,1,3cyclo-  5.583-14
 C6H2            6.564-10
 C6H5,phenyl     1.109-14
 C6H6            2.009-13
 *H              2.9017-3
 HCO             3.3581-7
 HCCO            2.3517-9
 *H2             4.9772-1
 HCHO,formaldehy 9.2570-8
 HCOOH           2.642-12
 H2O             1.5112-5
 *O              4.667-11
 *OH             1.2789-8
 *O2             6.002-16
 C(gr)           8.1345-2

  * THERMODYNAMIC PROPERTIES FITTED TO 20000.K



