
 *******************************************************************************

         NASA-GLENN CHEMICAL EQUILIBRIUM PROGRAM CEA2, MAY 21, 2004
                   BY  BONNIE MCBRIDE AND SANFORD GORDON
      REFS: NASA RP-1311, PART I, 1994 AND NASA RP-1311, PART II, 1996

 *******************************************************************************



 problem    phi,eq.ratio=2.1,2.2,2.3,2.4,2.5,2.6,2.7,2.8,2.9,3,3.1,3.2,3.3,3.4,3.
 5,3.6,
       hp   p,bar=1,  t,k=3800
 react
   fuel=C2H5OH moles=1 t,k=300
   oxid=O2 moles=3 t,k=300
   oxid=N2 moles=11.2857 t,k=300
 output
      trace=1e-16 siunits short
 end




         THERMODYNAMIC EQUILIBRIUM COMBUSTION PROPERTIES AT ASSIGNED

                                   PRESSURES

 CASE =                

             REACTANT                       MOLES         ENERGY      TEMP
                                                         KJ/KG-MOL      K
 FUEL        C2H5OH                       1.0000000   -234828.916    300.000
 OXIDANT     O2                           3.0000000        54.358    300.000
 OXIDANT     N2                          11.2857000        53.881    300.000

 O/F=    4.26020  %FUEL= 19.010698  R,EQ.RATIO= 1.814815  PHI,EQ.RATIO= 2.100000

 THERMODYNAMIC PROPERTIES

 P, BAR            1.0000
 T, K             1588.59
 RHO, KG/CU M    1.7685-1
 H, KJ/KG         -967.53
 U, KJ/KG        -1532.99
 G, KJ/KG        -17946.5
 S, KJ/(KG)(K)    10.6881

 M, (1/n)          23.359
 (dLV/dLP)t      -1.00001
 (dLV/dLT)p        1.0002
 Cp, KJ/(KG)(K)    1.6524
 GAMMAs            1.2747
 SON VEL,M/SEC      849.0

 MOLE FRACTIONS

 CH2             2.189-15
 CH3             1.665-11
 CH2OH           3.389-14
 CH3O            1.784-15
 CH4             6.6072-9
 CH3OH           9.594-13
 *CN             8.347-14
 *CO             1.4875-1
 *CO2            4.4031-2
 COOH            4.783-10
 C2H2,acetylene  9.656-14
 CH2CO,ketene    8.466-13
 CH3CN           1.064-15
 C2H4            1.858-15
 CH3CHO,ethanal  1.264-16
 C2N2            1.855-16
 C3O2            1.476-16
 *H              1.8929-5
 HCN             9.9866-8
 HCO             3.1942-9
 HCCO            2.344-16
 HNC             1.9056-9
 HNCO            2.5596-8
 HNO             1.972-12
 HNO2            2.678-15
 HO2             1.576-14
 *H2             1.5418-1
 HCHO,formaldehy 1.0038-8
 HCOOH           9.5248-9
 H2O             1.3498-1
 H2O2            2.329-13
 *N              3.716-13
 NCO             9.192-13
 *NH             5.705-12
 NH2             7.380-10
 NH3             2.1097-6
 NH2OH           1.493-14
 *NO             1.6513-8
 NO2             7.627-16
 *N2             5.1803-1
 N2H2            8.925-15
 N2O             8.034-13
 *O              6.404-11
 *OH             7.3221-7
 *O2             2.567-11

  * THERMODYNAMIC PROPERTIES FITTED TO 20000.K









         THERMODYNAMIC EQUILIBRIUM COMBUSTION PROPERTIES AT ASSIGNED

                                   PRESSURES

 CASE =                

             REACTANT                       MOLES         ENERGY      TEMP
                                                         KJ/KG-MOL      K
 FUEL        C2H5OH                       1.0000000   -234828.916    300.000
 OXIDANT     O2                           3.0000000        54.358    300.000
 OXIDANT     N2                          11.2857000        53.881    300.000

 O/F=    4.06655  %FUEL= 19.737294  R,EQ.RATIO= 1.878049  PHI,EQ.RATIO= 2.200000

 THERMODYNAMIC PROPERTIES

 P, BAR            1.0000
 T, K             1535.14
 RHO, KG/CU M    1.8052-1
 H, KJ/KG        -1004.59
 U, KJ/KG        -1558.54
 G, KJ/KG        -17492.7
 S, KJ/(KG)(K)    10.7405

 M, (1/n)          23.042
 (dLV/dLP)t      -1.00001
 (dLV/dLT)p        1.0001
 Cp, KJ/(KG)(K)    1.6622
 GAMMAs            1.2774
 SON VEL,M/SEC      841.2

 MOLE FRACTIONS

 CH2             1.493-15
 CH3             2.280-11
 CH2OH           3.205-14
 CH3O            1.527-15
 CH4             1.7130-8
 CH3OH           1.565-12
 *CN             4.489-14
 *CO             1.5460-1
 *CO2            4.2839-2
 COOH            3.043-10
 C2H2,acetylene  1.722-13
 CH2CO,ketene    1.413-12
 CH3CN           3.052-15
 C2H4            5.926-15
 CH3CHO,ethanal  3.207-16
 C2N2            2.333-16
 C3O2            1.896-16
 *H              1.0930-5
 HCN             1.2550-7
 HCO             2.3328-9
 HCCO            2.041-16
 HNC             2.0306-9
 HNCO            2.7981-8
 HNO             7.021-13
 HNO2            6.792-16
 HO2             3.229-15
 *H2             1.6847-1
 HCHO,formaldehy 1.1538-8
 HCOOH           9.7346-9
 H2O             1.2767-1
 H2O2            7.401-14
 *N              1.040-13
 NCO             4.909-13
 *NH             2.301-12
 NH2             4.912-10
 NH3             2.7633-6
 NH2OH           8.694-15
 *NO             5.7383-9
 NO2             1.377-16
 *N2             5.0641-1
 N2H2            5.512-15
 N2O             2.799-13
 *O              1.465-11
 *OH             3.1174-7
 *O2             5.136-12

  * THERMODYNAMIC PROPERTIES FITTED TO 20000.K









         THERMODYNAMIC EQUILIBRIUM COMBUSTION PROPERTIES AT ASSIGNED

                                   PRESSURES

 CASE =                

             REACTANT                       MOLES         ENERGY      TEMP
                                                         KJ/KG-MOL      K
 FUEL        C2H5OH                       1.0000000   -234828.916    300.000
 OXIDANT     O2                           3.0000000        54.358    300.000
 OXIDANT     N2                          11.2857000        53.881    300.000

 O/F=    3.88974  %FUEL= 20.450968  R,EQ.RATIO= 1.939759  PHI,EQ.RATIO= 2.300000

 THERMODYNAMIC PROPERTIES

 P, BAR            1.0000
 T, K             1483.49
 RHO, KG/CU M    1.8435-1
 H, KJ/KG        -1040.98
 U, KJ/KG        -1583.43
 G, KJ/KG        -17046.8
 S, KJ/(KG)(K)    10.7893

 M, (1/n)          22.738
 (dLV/dLP)t      -1.00001
 (dLV/dLT)p        1.0001
 Cp, KJ/(KG)(K)    1.6722
 GAMMAs            1.2799
 SON VEL,M/SEC      833.2

 MOLE FRACTIONS

 CH2             9.747-16
 CH3             3.044-11
 CH2OH           2.953-14
 CH3O            1.271-15
 CH4             4.4037-8
 CH3OH           2.521-12
 *CN             2.323-14
 *CO             1.5995-1
 *CO2            4.1936-2
 COOH            1.908-10
 C2H2,acetylene  2.988-13
 CH2CO,ketene    2.319-12
 CH3CN           8.618-15
 C2H4            1.855-14
 CH3CHO,ethanal  8.015-16
 CH3COOH         1.054-16
 C2N2            2.861-16
 C3O2            2.390-16
 *H              6.1578-6
 HCN             1.5536-7
 HCO             1.6654-9
 HCCO            1.718-16
 HNC             2.1191-9
 HNCO            3.0356-8
 HNO             2.430-13
 HNO2            1.675-16
 HO2             6.378-16
 *H2             1.8237-1
 HCHO,formaldehy 1.3092-8
 HCOOH           9.9151-9
 H2O             1.2045-1
 H2O2            2.287-14
 *N              2.789-14
 NCO             2.554-13
 *NH             8.943-13
 NH2             3.185-10
 NH3             3.5885-6
 NH2OH           4.946-15
 *NO             1.9471-9
 *N2             4.9530-1
 N2H2            3.316-15
 N2O             9.538-14
 *O              3.226-12
 *OH             1.2960-7
 *O2             9.961-13

  * THERMODYNAMIC PROPERTIES FITTED TO 20000.K









         THERMODYNAMIC EQUILIBRIUM COMBUSTION PROPERTIES AT ASSIGNED

                                   PRESSURES

 CASE =                

             REACTANT                       MOLES         ENERGY      TEMP
                                                         KJ/KG-MOL      K
 FUEL        C2H5OH                       1.0000000   -234828.916    300.000
 OXIDANT     O2                           3.0000000        54.358    300.000
 OXIDANT     N2                          11.2857000        53.881    300.000

 O/F=    3.72767  %FUEL= 21.152062  R,EQ.RATIO= 2.000000  PHI,EQ.RATIO= 2.400000

 THERMODYNAMIC PROPERTIES

 P, BAR            1.0000
 T, K             1433.54
 RHO, KG/CU M    1.8833-1
 H, KJ/KG        -1076.73
 U, KJ/KG        -1607.70
 G, KJ/KG        -16608.7
 S, KJ/(KG)(K)    10.8347

 M, (1/n)          22.448
 (dLV/dLP)t      -1.00001
 (dLV/dLT)p        1.0001
 Cp, KJ/(KG)(K)    1.6824
 GAMMAs            1.2823
 SON VEL,M/SEC      825.2

 MOLE FRACTIONS

 CH2             6.108-16
 CH3             3.980-11
 CH2OH           2.658-14
 CH3O            1.031-15
 CH4             1.1299-7
 CH3OH           4.025-12
 *CN             1.157-14
 *CO             1.6486-1
 *CO2            4.1277-2
 COOH            1.177-10
 C2H2,acetylene  5.081-13
 CH2CO,ketene    3.761-12
 CH3CN           2.415-14
 CH3CO,acetyl    1.227-16
 C2H4            5.746-14
 CH3CHO,ethanal  1.989-15
 CH3COOH         2.347-16
 C2H6            1.673-16
 C2N2            3.438-16
 C3O2            2.969-16
 *H              3.3834-6
 HCN             1.9006-7
 HCO             1.1629-9
 HCCO            1.402-16
 HNC             2.1721-9
 HNCO            3.2734-8
 HNO             8.148-14
 HO2             1.208-16
 *H2             1.9587-1
 HCHO,formaldehy 1.4698-8
 HCOOH           1.0073-8
 H2O             1.1333-1
 H2O2            6.851-15
 *N              7.145-15
 NCO             1.294-13
 *NH             3.345-13
 NH2             2.013-10
 NH3             4.6320-6
 NH2OH           2.748-15
 *NO             6.429-10
 *N2             4.8466-1
 N2H2            1.943-15
 N2O             3.168-14
 *O              6.802-13
 *OH             5.2481-8
 *O2             1.861-13

  * THERMODYNAMIC PROPERTIES FITTED TO 20000.K









         THERMODYNAMIC EQUILIBRIUM COMBUSTION PROPERTIES AT ASSIGNED

                                   PRESSURES

 CASE =                

             REACTANT                       MOLES         ENERGY      TEMP
                                                         KJ/KG-MOL      K
 FUEL        C2H5OH                       1.0000000   -234828.916    300.000
 OXIDANT     O2                           3.0000000        54.358    300.000
 OXIDANT     N2                          11.2857000        53.881    300.000

 O/F=    3.57856  %FUEL= 21.840906  R,EQ.RATIO= 2.058824  PHI,EQ.RATIO= 2.500000

 THERMODYNAMIC PROPERTIES

 P, BAR            1.0000
 T, K             1385.21
 RHO, KG/CU M    1.9249-1
 H, KJ/KG        -1111.85
 U, KJ/KG        -1631.36
 G, KJ/KG        -16178.5
 S, KJ/(KG)(K)    10.8768

 M, (1/n)          22.170
 (dLV/dLP)t      -1.00001
 (dLV/dLT)p        1.0001
 Cp, KJ/(KG)(K)    1.6929
 GAMMAs            1.2846
 SON VEL,M/SEC      816.9

 MOLE FRACTIONS

 CH2             3.680-16
 CH3             5.116-11
 CH2OH           2.342-14
 CH3O            8.161-16
 CH4             2.9099-7
 CH3OH           6.396-12
 *CN             5.547-15
 *CO             1.6938-1
 *CO2            4.0828-2
 COOH            7.147-11
 C2H2,acetylene  8.507-13
 CH2CO,ketene    6.050-12
 CH3CN           6.762-14
 CH3CO,acetyl    1.828-16
 C2H4            1.776-13
 CH3CHO,ethanal  4.929-15
 CH3COOH         5.257-16
 C2H6            8.382-16
 C2N2            4.063-16
 C3O2            3.645-16
 *H              1.8119-6
 HCN             2.3034-7
 HCO             7.946-10
 HCCO            1.112-16
 HNC             2.1914-9
 HNCO            3.5128-8
 HNO             2.640-14
 *H2             2.0899-1
 HCHO,formaldehy 1.6357-8
 HCOOH           1.0214-8
 H2O             1.0632-1
 H2O2            1.982-15
 *N              1.744-15
 NCO             6.378-14
 *NH             1.203-13
 NH2             1.241-10
 NH3             5.9553-6
 NH2OH           1.490-15
 *NO             2.059-10
 *N2             4.7447-1
 N2H2            1.109-15
 N2O             1.022-14
 *O              1.369-13
 *OH             2.0654-8
 *O2             3.331-14

  * THERMODYNAMIC PROPERTIES FITTED TO 20000.K









         THERMODYNAMIC EQUILIBRIUM COMBUSTION PROPERTIES AT ASSIGNED

                                   PRESSURES

 CASE =                

             REACTANT                       MOLES         ENERGY      TEMP
                                                         KJ/KG-MOL      K
 FUEL        C2H5OH                       1.0000000   -234828.916    300.000
 OXIDANT     O2                           3.0000000        54.358    300.000
 OXIDANT     N2                          11.2857000        53.881    300.000

 O/F=    3.44093  %FUEL= 22.517818  R,EQ.RATIO= 2.116279  PHI,EQ.RATIO= 2.600000

 THERMODYNAMIC PROPERTIES

 P, BAR            1.0000
 T, K             1338.41
 RHO, KG/CU M    1.9682-1
 H, KJ/KG        -1146.37
 U, KJ/KG        -1654.44
 G, KJ/KG        -15756.0
 S, KJ/(KG)(K)    10.9156

 M, (1/n)          21.903
 (dLV/dLP)t      -1.00001
 (dLV/dLT)p        1.0001
 Cp, KJ/(KG)(K)    1.7037
 GAMMAs            1.2867
 SON VEL,M/SEC      808.5

 MOLE FRACTIONS

 CH2             2.134-16
 CH3             6.484-11
 CH2OH           2.022-14
 CH3O            6.313-16
 CH4             7.5570-7
 CH3OH           1.014-11
 *CN             2.561-15
 *CO             1.7356-1
 *CO2            4.0563-2
 COOH            4.262-11
 C2H2,acetylene  1.409-12
 CH2CO,ketene    9.689-12
 CH3CN           1.903-13
 CH3CO,acetyl    2.694-16
 C2H4            5.510-13
 CH3CHO,ethanal  1.226-14
 CH3COOH         1.189-15
 C2H6            4.259-15
 C2N2            4.735-16
 C3O2            4.435-16
 *H              9.4496-7
 HCN             2.7715-7
 HCO             5.312-10
 HNC             2.1800-9
 HNCO            3.7553-8
 HNO             8.245-15
 *H2             2.2173-1
 HCHO,formaldehy 1.8069-8
 HCOOH           1.0340-8
 H2O             9.9439-2
 H2O2            5.519-16
 *N              4.043-16
 NCO             3.056-14
 *NH             4.149-14
 NH2             7.456-11
 NH3             7.6393-6
 NH2OH           7.876-16
 *NO             6.376-11
 *N2             4.6471-1
 N2H2            6.168-16
 N2O             3.195-15
 *O              2.616-14
 *OH             7.8805-9
 *O2             5.684-15

  * THERMODYNAMIC PROPERTIES FITTED TO 20000.K









         THERMODYNAMIC EQUILIBRIUM COMBUSTION PROPERTIES AT ASSIGNED

                                   PRESSURES

 CASE =                

             REACTANT                       MOLES         ENERGY      TEMP
                                                         KJ/KG-MOL      K
 FUEL        C2H5OH                       1.0000000   -234828.916    300.000
 OXIDANT     O2                           3.0000000        54.358    300.000
 OXIDANT     N2                          11.2857000        53.881    300.000

 O/F=    3.31349  %FUEL= 23.183106  R,EQ.RATIO= 2.172414  PHI,EQ.RATIO= 2.700000

 THERMODYNAMIC PROPERTIES

 P, BAR            1.0000
 T, K             1293.07
 RHO, KG/CU M    2.0134-1
 H, KJ/KG        -1180.30
 U, KJ/KG        -1676.96
 G, KJ/KG        -15341.2
 S, KJ/(KG)(K)    10.9514

 M, (1/n)          21.647
 (dLV/dLP)t      -1.00002
 (dLV/dLT)p        1.0001
 Cp, KJ/(KG)(K)    1.7149
 GAMMAs            1.2887
 SON VEL,M/SEC      800.0

 MOLE FRACTIONS

 CH2             1.192-16
 CH3             8.123-11
 CH2OH           1.712-14
 CH3O            4.775-16
 CH4             1.9876-6
 CH3OH           1.609-11
 *CN             1.137-15
 *CO             1.7741-1
 *CO2            4.0459-2
 COOH            2.494-11
 C2H2,acetylene  2.318-12
 CH2CO,ketene    1.550-11
 CH3CN           5.415-13
 CH3CO,acetyl    3.940-16
 C2H4            1.726-12
 CH3CHO,ethanal  3.077-14
 CH3COOH         2.723-15
 C2H6            2.211-14
 C2N2            5.457-16
 C3O2            5.360-16
 *H              4.7949-7
 HCN             3.3166-7
 HCO             3.475-10
 HNC             2.1413-9
 HNCO            4.0022-8
 HNO             2.474-15
 *H2             2.3410-1
 HCHO,formaldehy 1.9835-8
 HCOOH           1.0455-8
 H2O             9.2686-2
 H2O2            1.474-16
 NCO             1.421-14
 *NH             1.371-14
 NH2             4.365-11
 NH3             9.7913-6
 NH2OH           4.055-16
 *NO             1.903-11
 *N2             4.5533-1
 N2H2            3.338-16
 N2O             9.641-16
 *O              4.732-15
 *OH             2.9081-9
 *O2             9.194-16

  * THERMODYNAMIC PROPERTIES FITTED TO 20000.K









         THERMODYNAMIC EQUILIBRIUM COMBUSTION PROPERTIES AT ASSIGNED

                                   PRESSURES

 CASE =                

             REACTANT                       MOLES         ENERGY      TEMP
                                                         KJ/KG-MOL      K
 FUEL        C2H5OH                       1.0000000   -234828.916    300.000
 OXIDANT     O2                           3.0000000        54.358    300.000
 OXIDANT     N2                          11.2857000        53.881    300.000

 O/F=    3.19515  %FUEL= 23.837067  R,EQ.RATIO= 2.227273  PHI,EQ.RATIO= 2.800000

 THERMODYNAMIC PROPERTIES

 P, BAR            1.0000
 T, K             1249.14
 RHO, KG/CU M    2.0606-1
 H, KJ/KG        -1213.64
 U, KJ/KG        -1698.94
 G, KJ/KG        -14934.2
 S, KJ/(KG)(K)    10.9840

 M, (1/n)          21.401
 (dLV/dLP)t      -1.00003
 (dLV/dLT)p        1.0003
 Cp, KJ/(KG)(K)    1.7269
 GAMMAs            1.2904
 SON VEL,M/SEC      791.4

 MOLE FRACTIONS

 CH3             1.008-10
 CH2OH           1.423-14
 CH3O            3.534-16
 CH4             5.3142-6
 CH3OH           2.558-11
 *CN             4.858-16
 *CO             1.8097-1
 *CO2            4.0498-2
 COOH            1.430-11
 C2H2,acetylene  3.799-12
 CH2CO,ketene    2.481-11
 O(CH)2O         1.015-16
 CH3CN           1.564-12
 CH3CO,acetyl    5.735-16
 C2H4            5.489-12
 CH3CHO,ethanal  7.816-14
 CH3COOH         6.338-15
 C2H6            1.181-13
 C2N2            6.231-16
 C3O2            6.446-16
 *H              2.3648-7
 HCN             3.9535-7
 HCO             2.223-10
 HNC             2.0793-9
 HNCO            4.2550-8
 HNO             7.115-16
 *H2             2.4612-1
 HCHO,formaldehy 2.1657-8
 HCOOH           1.0559-8
 H2O             8.6065-2
 NCO             6.410-15
 *NH             4.329-15
 NH2             2.489-11
 NH3             1.2554-5
 NH2OH           2.031-16
 *NO             5.457-12
 *N2             4.4633-1
 N2H2            1.757-16
 N2O             2.801-16
 *O              8.065-16
 *OH             1.0355-9
 *O2             1.403-16

  * THERMODYNAMIC PROPERTIES FITTED TO 20000.K









         THERMODYNAMIC EQUILIBRIUM COMBUSTION PROPERTIES AT ASSIGNED

                                   PRESSURES

 CASE =                

             REACTANT                       MOLES         ENERGY      TEMP
                                                         KJ/KG-MOL      K
 FUEL        C2H5OH                       1.0000000   -234828.916    300.000
 OXIDANT     O2                           3.0000000        54.358    300.000
 OXIDANT     N2                          11.2857000        53.881    300.000

 O/F=    3.08497  %FUEL= 24.479987  R,EQ.RATIO= 2.280899  PHI,EQ.RATIO= 2.900000

 THERMODYNAMIC PROPERTIES

 P, BAR            1.0000
 T, K             1206.56
 RHO, KG/CU M    2.1098-1
 H, KJ/KG        -1246.43
 U, KJ/KG        -1720.40
 G, KJ/KG        -14535.1
 S, KJ/(KG)(K)    11.0137

 M, (1/n)          21.166
 (dLV/dLP)t      -1.00007
 (dLV/dLT)p        1.0008
 Cp, KJ/(KG)(K)    1.7407
 GAMMAs            1.2919
 SON VEL,M/SEC      782.5

 MOLE FRACTIONS

 CH3             1.241-10
 CH2OH           1.162-14
 CH3O            2.559-16
 CH4             1.4489-5
 CH3OH           4.085-11
 *CN             1.994-16
 *CO             1.8426-1
 *CO2            4.0662-2
 COOH            8.032-12
 C2H2,acetylene  6.221-12
 CH2CO,ketene    3.986-11
 O(CH)2O         1.061-16
 CH3CN           4.604-12
 CH3CO,acetyl    8.325-16
 C2H4            1.779-11
 CH3CHO,ethanal  2.017-13
 CH3COOH         1.504-14
 C2H6            6.522-13
 C2N2            7.067-16
 C3O2            7.726-16
 *H              1.1326-7
 HCN             4.7010-7
 HCO             1.390-10
 HNC             1.9982-9
 HNCO            4.5152-8
 HNO             1.956-16
 *H2             2.5778-1
 HCHO,formaldehy 2.3537-8
 HCOOH           1.0652-8
 H2O             7.9580-2
 NCO             2.801-15
 *NH             1.305-15
 NH2             1.382-11
 NH3             1.6118-5
 *NO             1.500-12
 *N2             4.3768-1
 *O              1.291-16
 *OH             3.550-10

  * THERMODYNAMIC PROPERTIES FITTED TO 20000.K









         THERMODYNAMIC EQUILIBRIUM COMBUSTION PROPERTIES AT ASSIGNED

                                   PRESSURES

 CASE =                

             REACTANT                       MOLES         ENERGY      TEMP
                                                         KJ/KG-MOL      K
 FUEL        C2H5OH                       1.0000000   -234828.916    300.000
 OXIDANT     O2                           3.0000000        54.358    300.000
 OXIDANT     N2                          11.2857000        53.881    300.000

 O/F=    2.98214  %FUEL= 25.112143  R,EQ.RATIO= 2.333333  PHI,EQ.RATIO= 3.000000

 THERMODYNAMIC PROPERTIES

 P, BAR            1.0000
 T, K             1165.36
 RHO, KG/CU M    2.1611-1
 H, KJ/KG        -1278.66
 U, KJ/KG        -1741.40
 G, KJ/KG        -14144.6
 S, KJ/(KG)(K)    11.0403

 M, (1/n)          20.939
 (dLV/dLP)t      -1.00018
 (dLV/dLT)p        1.0021
 Cp, KJ/(KG)(K)    1.7591
 GAMMAs            1.2928
 SON VEL,M/SEC      773.5

 MOLE FRACTIONS

 CH3             1.519-10
 CH2OH           9.318-15
 CH3O            1.815-16
 CH4             4.0347-5
 CH3OH           6.555-11
 *CO             1.8731-1
 *CO2            4.0937-2
 COOH            4.413-12
 C2H2,acetylene  1.020-11
 CH2CO,ketene    6.436-11
 O(CH)2O         1.102-16
 CH3CN           1.385-11
 CH3CO,acetyl    1.207-15
 C2H4            5.892-11
 CH3CHO,ethanal  5.297-13
 CH3COOH         3.639-14
 C2H5            2.458-16
 C2H6            3.736-12
 C2N2            7.972-16
 C3H6,propylene  1.212-16
 C3O2            9.242-16
 *H              5.2678-8
 HCN             5.5814-7
 HCO             8.503-11
 HNC             1.9021-9
 HNCO            4.7840-8
 *H2             2.6907-1
 HCHO,formaldehy 2.5474-8
 HCOOH           1.0733-8
 H2O             7.3246-2
 NCO             1.185-15
 *NH             3.754-16
 NH2             7.465-12
 NH3             2.0730-5
 *NO             3.946-13
 *N2             4.2938-1
 *OH             1.171-10

  * THERMODYNAMIC PROPERTIES FITTED TO 20000.K









         THERMODYNAMIC EQUILIBRIUM COMBUSTION PROPERTIES AT ASSIGNED

                                   PRESSURES

 CASE =                

             REACTANT                       MOLES         ENERGY      TEMP
                                                         KJ/KG-MOL      K
 FUEL        C2H5OH                       1.0000000   -234828.916    300.000
 OXIDANT     O2                           3.0000000        54.358    300.000
 OXIDANT     N2                          11.2857000        53.881    300.000

 O/F=    2.88594  %FUEL= 25.733804  R,EQ.RATIO= 2.384615  PHI,EQ.RATIO= 3.100000

 THERMODYNAMIC PROPERTIES

 P, BAR            1.0000
 T, K             1125.67
 RHO, KG/CU M    2.2142-1
 H, KJ/KG        -1310.36
 U, KJ/KG        -1761.99
 G, KJ/KG        -13764.9
 S, KJ/(KG)(K)    11.0641

 M, (1/n)          20.724
 (dLV/dLP)t      -1.00048
 (dLV/dLT)p        1.0060
 Cp, KJ/(KG)(K)    1.7915
 GAMMAs            1.2923
 SON VEL,M/SEC      764.0

 MOLE FRACTIONS

 CH3             1.847-10
 CH2OH           7.355-15
 CH3O            1.263-16
 CH4             1.1445-4
 CH3OH           1.056-10
 *CO             1.9010-1
 *CO2            4.1307-2
 COOH            2.377-12
 C2H2,acetylene  1.676-11
 CH2CO,ketene    1.044-10
 O(CH)2O         1.138-16
 CH3CN           4.247-11
 CH3CO,acetyl    1.748-15
 C2H4            1.989-10
 CH3CHO,ethanal  1.413-12
 CH3COOH         8.964-14
 C2H5            6.725-16
 C2H6            2.210-11
 C2H5OH          3.120-16
 C2N2            8.954-16
 C3H4,propyne    1.805-16
 C3H6,propylene  9.241-16
 C3O2            1.104-15
 *H              2.3864-8
 HCN             6.6181-7
 HCO             5.097-11
 HNC             1.7955-9
 HNCO            5.0613-8
 *H2             2.7992-1
 HCHO,formaldehy 2.7457-8
 HCOOH           1.0800-8
 H2O             6.7103-2
 NCO             4.876-16
 *NH             1.035-16
 NH2             3.937-12
 NH3             2.6693-5
 *NO             9.987-14
 *N2             4.2143-1
 *OH             3.729-11

  * THERMODYNAMIC PROPERTIES FITTED TO 20000.K









         THERMODYNAMIC EQUILIBRIUM COMBUSTION PROPERTIES AT ASSIGNED

                                   PRESSURES

 CASE =                

             REACTANT                       MOLES         ENERGY      TEMP
                                                         KJ/KG-MOL      K
 FUEL        C2H5OH                       1.0000000   -234828.916    300.000
 OXIDANT     O2                           3.0000000        54.358    300.000
 OXIDANT     N2                          11.2857000        53.881    300.000

 O/F=    2.79575  %FUEL= 26.345229  R,EQ.RATIO= 2.434783  PHI,EQ.RATIO= 3.200000

 THERMODYNAMIC PROPERTIES

 P, BAR            1.0000
 T, K             1088.04
 RHO, KG/CU M    2.2685-1
 H, KJ/KG        -1341.54
 U, KJ/KG        -1782.37
 G, KJ/KG        -13402.5
 S, KJ/(KG)(K)    11.0851

 M, (1/n)          20.522
 (dLV/dLP)t      -1.00132
 (dLV/dLT)p        1.0173
 Cp, KJ/(KG)(K)    1.8658
 GAMMAs            1.2877
 SON VEL,M/SEC      753.4

 MOLE FRACTIONS

 CH3             2.228-10
 CH2OH           5.735-15
 CH4             3.2560-4
 CH3OH           1.696-10
 *CO             1.9263-1
 *CO2            4.1757-2
 COOH            1.268-12
 C2H2,acetylene  2.737-11
 CH2CO,ketene    1.688-10
 O(CH)2O         1.169-16
 CH3CN           1.306-10
 CH3CO,acetyl    2.517-15
 C2H4            6.723-10
 CH3CHO,ethanal  3.771-12
 CH3COOH         2.217-13
 C2H5            1.833-15
 C2H6            1.315-10
 C2H5OH          1.133-15
 C2N2            1.001-15
 C3H4,allene     2.024-16
 C3H4,propyne    7.040-16
 C3H6,propylene  7.086-15
 C3H8            1.964-16
 C3O2            1.314-15
 *H              1.0663-8
 HCN             7.8210-7
 HCO             3.018-11
 HNC             1.6831-9
 HNCO            5.3432-8
 *H2             2.9011-1
 HCHO,formaldehy 2.9447-8
 HCOOH           1.0849-8
 H2O             6.1257-2
 NCO             1.977-16
 NH2             2.046-12
 NH3             3.4279-5
 *NO             2.482-14
 *N2             4.1388-1
 *OH             1.167-11

  * THERMODYNAMIC PROPERTIES FITTED TO 20000.K









         THERMODYNAMIC EQUILIBRIUM COMBUSTION PROPERTIES AT ASSIGNED

                                   PRESSURES

 CASE =                

             REACTANT                       MOLES         ENERGY      TEMP
                                                         KJ/KG-MOL      K
 FUEL        C2H5OH                       1.0000000   -234828.916    300.000
 OXIDANT     O2                           3.0000000        54.358    300.000
 OXIDANT     N2                          11.2857000        53.881    300.000

 O/F=    2.71103  %FUEL= 26.946669  R,EQ.RATIO= 2.483871  PHI,EQ.RATIO= 3.300000

 THERMODYNAMIC PROPERTIES

 P, BAR            1.0000
 T, K             1053.83
 RHO, KG/CU M    2.3215-1
 H, KJ/KG        -1372.21
 U, KJ/KG        -1802.96
 G, KJ/KG        -13073.2
 S, KJ/(KG)(K)    11.1033

 M, (1/n)          20.341
 (dLV/dLP)t      -1.00347
 (dLV/dLT)p        1.0475
 Cp, KJ/(KG)(K)    2.0513
 GAMMAs            1.2741
 SON VEL,M/SEC      740.8

 MOLE FRACTIONS

 CH3             2.643-10
 CH2OH           4.469-15
 CH4             8.8740-4
 CH3OH           2.659-10
 *CO             1.9480-1
 *CO2            4.2276-2
 COOH            6.882-13
 C2H2,acetylene  4.355-11
 CH2CO,ketene    2.667-10
 O(CH)2O         1.193-16
 CH3CN           3.835-10
 CH3CO,acetyl    3.545-15
 C2H4            2.1577-9
 CH3CHO,ethanal  9.650-12
 CH3COOH         5.291-13
 C2H5            4.760-15
 C2H6            7.280-10
 C2H5OH          3.894-15
 C2N2            1.107-15
 C3H4,allene     7.264-16
 C3H4,propyne    2.587-15
 C3H6,propylene  4.998-14
 C3H6O,acetone   2.474-16
 C3H8            2.281-15
 C3O2            1.547-15
 *H              4.8700-9
 HCN             9.1439-7
 HCO             1.808-11
 HNC             1.5714-9
 HNCO            5.6150-8
 *H2             2.9914-1
 HCHO,formaldehy 3.1338-8
 HCOOH           1.0882-8
 H2O             5.5962-2
 NH2             1.080-12
 NH3             4.3425-5
 *NO             6.443-15
 *N2             4.0689-1
 *OH             3.781-12

  * THERMODYNAMIC PROPERTIES FITTED TO 20000.K









         THERMODYNAMIC EQUILIBRIUM COMBUSTION PROPERTIES AT ASSIGNED

                                   PRESSURES

 CASE =                

             REACTANT                       MOLES         ENERGY      TEMP
                                                         KJ/KG-MOL      K
 FUEL        C2H5OH                       1.0000000   -234828.916    300.000
 OXIDANT     O2                           3.0000000        54.358    300.000
 OXIDANT     N2                          11.2857000        53.881    300.000

 O/F=    2.63130  %FUEL= 27.538366  R,EQ.RATIO= 2.531915  PHI,EQ.RATIO= 3.400000

 THERMODYNAMIC PROPERTIES

 P, BAR            1.0000
 T, K             1025.21
 RHO, KG/CU M    2.3692-1
 H, KJ/KG        -1402.38
 U, KJ/KG        -1824.47
 G, KJ/KG        -12801.8
 S, KJ/(KG)(K)    11.1191

 M, (1/n)          20.195
 (dLV/dLP)t      -1.00794
 (dLV/dLT)p        1.1120
 Cp, KJ/(KG)(K)    2.4493
 GAMMAs            1.2499
 SON VEL,M/SEC      726.3

 MOLE FRACTIONS

 CH3             3.043-10
 CH2OH           3.556-15
 CH4             2.1336-3
 CH3OH           3.928-10
 *CO             1.9646-1
 *CO2            4.2850-2
 COOH            4.003-13
 C2H2,acetylene  6.490-11
 CH2CO,ketene    3.964-10
 O(CH)2O         1.208-16
 CH3CN           9.824-10
 CH3CO,acetyl    4.751-15
 C2H4            5.9700-9
 CH3CHO,ethanal  2.192-11
 CH3COOH         1.135-12
 C2H5            1.090-14
 C2H6            3.2550-9
 C2H5OH          1.145-14
 C2N2            1.200-15
 C3H4,allene     2.211-15
 C3H4,propyne    8.034-15
 C3H6,propylene  2.759-13
 C3H6,cyclo-     1.381-16
 C3H6O,acetone   1.193-15
 C3H8            1.953-14
 C3O2            1.777-15
 *H              2.4255-9
 HCN             1.0434-6
 HCO             1.143-11
 HNC             1.4686-9
 HNCO            5.8494-8
 *H2             3.0622-1
 HCHO,formaldehy 3.2940-8
 HCOOH           1.0902-8
 H2O             5.1601-2
 NH2             6.094-13
 NH3             5.3232-5
 *NO             1.953-15
 *N2             4.0069-1
 *OH             1.392-12

  * THERMODYNAMIC PROPERTIES FITTED TO 20000.K









         THERMODYNAMIC EQUILIBRIUM COMBUSTION PROPERTIES AT ASSIGNED

                                   PRESSURES

 CASE =                

             REACTANT                       MOLES         ENERGY      TEMP
                                                         KJ/KG-MOL      K
 FUEL        C2H5OH                       1.0000000   -234828.916    300.000
 OXIDANT     O2                           3.0000000        54.358    300.000
 OXIDANT     N2                          11.2857000        53.881    300.000

 O/F=    2.55612  %FUEL= 28.120555  R,EQ.RATIO= 2.578947  PHI,EQ.RATIO= 3.500000

 THERMODYNAMIC PROPERTIES

 P, BAR            1.0000
 T, K             1003.38
 RHO, KG/CU M    2.4081-1
 H, KJ/KG        -1432.07
 U, KJ/KG        -1847.33
 G, KJ/KG        -12602.7
 S, KJ/(KG)(K)    11.1330

 M, (1/n)          20.090
 (dLV/dLP)t      -1.01468
 (dLV/dLT)p        1.2123
 Cp, KJ/(KG)(K)    3.0814
 GAMMAs            1.2236
 SON VEL,M/SEC      712.8

 MOLE FRACTIONS

 CH3             3.369-10
 CH2OH           2.941-15
 CH4             4.2534-3
 CH3OH           5.323-10
 *CO             1.9754-1
 *CO2            4.3465-2
 COOH            2.598-13
 C2H2,acetylene  8.804-11
 CH2CO,ketene    5.391-10
 O(CH)2O         1.214-16
 CH3CN           2.0524-9
 CH3CO,acetyl    5.935-15
 C2H4            1.3246-8
 CH3CHO,ethanal  4.172-11
 CH3COOH         2.073-12
 C2H5            2.073-14
 C2H6            1.0571-8
 C2H5OH          2.671-14
 C2N2            1.265-15
 C3H4,allene     5.265-15
 C3H4,propyne    1.945-14
 C3H5,allyl      1.375-16
 C3H6,propylene  1.055-12
 C3H6,cyclo-     4.853-16
 C3H6O,acetone   4.114-15
 C3H6O,propanal  3.021-16
 C3H8            1.058-13
 C3O2            1.972-15
 *H              1.3856-9
 HCN             1.1507-6
 HCO             7.897-12
 HNC             1.3802-9
 HNCO            6.0239-8
 *H2             3.1091-1
 HCHO,formaldehy 3.4116-8
 HCOOH           1.0922-8
 H2O             4.8383-2
 NH2             3.838-13
 NH3             6.2283-5
 *NO             7.533-16
 *N2             3.9539-1
 *OH             6.267-13

  * THERMODYNAMIC PROPERTIES FITTED TO 20000.K









         THERMODYNAMIC EQUILIBRIUM COMBUSTION PROPERTIES AT ASSIGNED

                                   PRESSURES

 CASE =                

             REACTANT                       MOLES         ENERGY      TEMP
                                                         KJ/KG-MOL      K
 FUEL        C2H5OH                       1.0000000   -234828.916    300.000
 OXIDANT     O2                           3.0000000        54.358    300.000
 OXIDANT     N2                          11.2857000        53.881    300.000

 O/F=    2.48511  %FUEL= 28.693463  R,EQ.RATIO= 2.625000  PHI,EQ.RATIO= 3.600000

 THERMODYNAMIC PROPERTIES

 P, BAR            1.0000
 T, K              987.35
 RHO, KG/CU M    2.4385-1
 H, KJ/KG        -1461.28
 U, KJ/KG        -1871.37
 G, KJ/KG        -12465.5
 S, KJ/(KG)(K)    11.1453

 M, (1/n)          20.019
 (dLV/dLP)t      -1.02241
 (dLV/dLT)p        1.3301
 Cp, KJ/(KG)(K)    3.8409
 GAMMAs            1.2032
 SON VEL,M/SEC      702.4

 MOLE FRACTIONS

 CH3             3.602-10
 CH2OH           2.530-15
 CH4             7.1132-3
 CH3OH           6.663-10
 *CO             1.9815-1
 *CO2            4.4105-2
 COOH            1.872-13
 C2H2,acetylene  1.095-10
 CH2CO,ketene    6.749-10
 O(CH)2O         1.212-16
 CH3CN           3.5401-9
 CH3CO,acetyl    6.955-15
 C2H4            2.3900-8
 CH3CHO,ethanal  6.729-11
 CH3COOH         3.258-12
 C2H5            3.321-14
 C2H6            2.5425-8
 C2H5OH          5.015-14
 C2N2            1.301-15
 C3H4,allene     9.972-15
 C3H4,propyne    3.730-14
 C3H5,allyl      2.767-16
 C3H6,propylene  2.858-12
 C3H6,cyclo-     1.233-15
 C3H6O,acetone   1.035-14
 C3H6O,propanal  7.090-16
 C3H8            3.726-13
 C3O2            2.118-15
 C4H6,butadiene  1.313-16
 *H              9.029-10
 HCN             1.2300-6
 HCO             5.939-12
 HNC             1.3060-9
 HNCO            6.1407-8
 *H2             3.1359-1
 HCHO,formaldehy 3.4896-8
 HCOOH           1.0947-8
 H2O             4.6133-2
 NH2             2.687-13
 NH3             6.9828-5
 *NO             3.658-16
 *N2             3.9084-1
 *OH             3.421-13

  * THERMODYNAMIC PROPERTIES FITTED TO 20000.K



