
 *******************************************************************************

         NASA-GLENN CHEMICAL EQUILIBRIUM PROGRAM CEA2, MAY 21, 2004
                   BY  BONNIE MCBRIDE AND SANFORD GORDON
      REFS: NASA RP-1311, PART I, 1994 AND NASA RP-1311, PART II, 1996

 *******************************************************************************



 problem    phi,eq.ratio=2.1,2.2,2.3,2.4,2.5,2.6,2.7,2.8,2.9,3,3.1,3.2,3.3,3.4,3.
 5,3.6,
       hp   p,bar=1,  t,k=3800
 react
   fuel=C3H8 moles=1 t,k=300
   oxid=O2 moles=5 t,k=300
   oxid=N2 moles=18.8095 t,k=300
 output
      trace=1e-16 siunits short
 end




         THERMODYNAMIC EQUILIBRIUM COMBUSTION PROPERTIES AT ASSIGNED

                                   PRESSURES

 CASE =                

             REACTANT                       MOLES         ENERGY      TEMP
                                                         KJ/KG-MOL      K
 FUEL        C3H8                         1.0000000   -104543.521    300.000
 OXIDANT     O2                           5.0000000        54.358    300.000
 OXIDANT     N2                          18.8095000        53.881    300.000

 O/F=    7.41799  %FUEL= 11.879317  R,EQ.RATIO= 2.100000  PHI,EQ.RATIO= 2.100000

 THERMODYNAMIC PROPERTIES

 P, BAR            1.0000
 T, K             1569.58
 RHO, KG/CU M    1.7825-1
 H, KJ/KG         -279.99
 U, KJ/KG         -840.99
 G, KJ/KG        -16897.1
 S, KJ/(KG)(K)    10.5870

 M, (1/n)          23.262
 (dLV/dLP)t      -1.00001
 (dLV/dLT)p        1.0002
 Cp, KJ/(KG)(K)    1.5979
 GAMMAs            1.2882
 SON VEL,M/SEC      850.1

 MOLE FRACTIONS

 CH2             3.627-15
 CH3             3.612-11
 CH2OH           3.834-14
 CH3O            1.949-15
 CH4             1.8383-8
 CH3OH           1.348-12
 *CN             1.261-13
 *CO             1.6047-1
 *CO2            2.7537-2
 COOH            2.650-10
 C2H2,acetylene  4.010-13
 CH2CO,ketene    2.039-12
 CH3CN           5.598-15
 C2H4            9.967-15
 CH3CHO,ethanal  3.716-16
 OCCN            1.049-16
 C2N2            7.061-16
 C2O             1.388-16
 C3O2            3.272-16
 *H              1.6060-5
 HCN             2.0825-7
 HCO             3.1305-9
 HCCO            4.381-16
 HNC             3.7519-9
 HNCO            3.0164-8
 HNO             8.766-13
 HNO2            6.276-16
 HO2             3.282-15
 *H2             1.6778-1
 HCHO,formaldehy 1.1833-8
 HCOOH           6.3931-9
 H2O             8.2879-2
 H2O2            5.804-14
 *N              2.493-13
 NCO             8.219-13
 *NH             4.465-12
 NH2             7.063-10
 NH3             2.6249-6
 NH2OH           8.311-15
 *NO             7.0871-9
 NO2             1.546-16
 *N2             5.6131-1
 N2H2            8.696-15
 N2O             3.606-13
 *O              2.274-11
 *OH             3.3151-7
 *O2             5.161-12

  * THERMODYNAMIC PROPERTIES FITTED TO 20000.K









         THERMODYNAMIC EQUILIBRIUM COMBUSTION PROPERTIES AT ASSIGNED

                                   PRESSURES

 CASE =                

             REACTANT                       MOLES         ENERGY      TEMP
                                                         KJ/KG-MOL      K
 FUEL        C3H8                         1.0000000   -104543.521    300.000
 OXIDANT     O2                           5.0000000        54.358    300.000
 OXIDANT     N2                          18.8095000        53.881    300.000

 O/F=    7.08081  %FUEL= 12.374996  R,EQ.RATIO= 2.200000  PHI,EQ.RATIO= 2.200000

 THERMODYNAMIC PROPERTIES

 P, BAR            1.0000
 T, K             1508.81
 RHO, KG/CU M    1.8266-1
 H, KJ/KG         -291.75
 U, KJ/KG         -839.20
 G, KJ/KG        -16340.7
 S, KJ/(KG)(K)    10.6368

 M, (1/n)          22.915
 (dLV/dLP)t      -1.00001
 (dLV/dLT)p        1.0001
 Cp, KJ/(KG)(K)    1.6045
 GAMMAs            1.2923
 SON VEL,M/SEC      841.1

 MOLE FRACTIONS

 CH2             2.362-15
 CH3             5.282-11
 CH2OH           3.504-14
 CH3O            1.587-15
 CH4             5.6372-8
 CH3OH           2.316-12
 *CN             6.328-14
 *CO             1.6730-1
 *CO2            2.5625-2
 COOH            1.490-10
 C2H2,acetylene  8.323-13
 CH2CO,ketene    3.775-12
 CH3CN           2.018-14
 CH3CO,acetyl    1.395-16
 C2H4            4.029-14
 CH3CHO,ethanal  1.107-15
 C2N2            9.938-16
 C3O2            4.510-16
 *H              8.3865-6
 HCN             2.8024-7
 HCO             2.1444-9
 HCCO            3.813-16
 HNC             4.1623-9
 HNCO            3.3237-8
 HNO             2.513-13
 HNO2            1.166-16
 HO2             4.733-16
 *H2             1.8347-1
 HCHO,formaldehy 1.3686-8
 HCOOH           6.2160-9
 H2O             7.3762-2
 H2O2            1.389-14
 *N              5.635-14
 NCO             3.944-13
 *NH             1.536-12
 NH2             4.335-10
 NH3             3.5339-6
 NH2OH           4.178-15
 *NO             1.9879-9
 *N2             5.4983-1
 N2H2            4.909-15
 N2O             1.018-13
 *O              3.900-12
 *OH             1.1675-7
 *O2             7.292-13

  * THERMODYNAMIC PROPERTIES FITTED TO 20000.K









         THERMODYNAMIC EQUILIBRIUM COMBUSTION PROPERTIES AT ASSIGNED

                                   PRESSURES

 CASE =                

             REACTANT                       MOLES         ENERGY      TEMP
                                                         KJ/KG-MOL      K
 FUEL        C3H8                         1.0000000   -104543.521    300.000
 OXIDANT     O2                           5.0000000        54.358    300.000
 OXIDANT     N2                          18.8095000        53.881    300.000

 O/F=    6.77295  %FUEL= 12.865129  R,EQ.RATIO= 2.300000  PHI,EQ.RATIO= 2.300000

 THERMODYNAMIC PROPERTIES

 P, BAR            1.0000
 T, K             1449.54
 RHO, KG/CU M    1.8737-1
 H, KJ/KG         -303.38
 U, KJ/KG         -837.08
 G, KJ/KG        -15788.2
 S, KJ/(KG)(K)    10.6825

 M, (1/n)          22.582
 (dLV/dLP)t      -1.00001
 (dLV/dLT)p        1.0001
 Cp, KJ/(KG)(K)    1.6110
 GAMMAs            1.2963
 SON VEL,M/SEC      831.8

 MOLE FRACTIONS

 CH2             1.454-15
 CH3             7.587-11
 CH2OH           3.098-14
 CH3O            1.243-15
 CH4             1.7593-7
 CH3OH           3.960-12
 *CN             3.006-14
 *CO             1.7377-1
 *CO2            2.3888-2
 COOH            8.091-11
 C2H2,acetylene  1.717-12
 CH2CO,ketene    6.980-12
 CH3CN           7.413-14
 CH3CO,acetyl    2.375-16
 C2H4            1.655-13
 CH3CHO,ethanal  3.333-15
 CH3COOH         2.204-16
 C2H6            4.283-16
 C2N2            1.384-15
 C3O2            6.165-16
 *H              4.1946-6
 HCN             3.7479-7
 HCO             1.4189-9
 HCCO            3.199-16
 HNC             4.5391-9
 HNCO            3.6387-8
 HNO             6.749-14
 *H2             1.9862-1
 HCHO,formaldehy 1.5637-8
 HCOOH           5.9882-9
 H2O             6.4914-2
 H2O2            3.089-15
 *N              1.173-14
 NCO             1.809-13
 *NH             4.943-13
 NH2             2.552-10
 NH3             4.7338-6
 NH2OH           2.002-15
 *NO             5.254-10
 *N2             5.3881-1
 N2H2            2.653-15
 N2O             2.714-14
 *O              6.128-13
 *OH             3.8897-8
 *O2             9.436-14

  * THERMODYNAMIC PROPERTIES FITTED TO 20000.K









         THERMODYNAMIC EQUILIBRIUM COMBUSTION PROPERTIES AT ASSIGNED

                                   PRESSURES

 CASE =                

             REACTANT                       MOLES         ENERGY      TEMP
                                                         KJ/KG-MOL      K
 FUEL        C3H8                         1.0000000   -104543.521    300.000
 OXIDANT     O2                           5.0000000        54.358    300.000
 OXIDANT     N2                          18.8095000        53.881    300.000

 O/F=    6.49074  %FUEL= 13.349810  R,EQ.RATIO= 2.400000  PHI,EQ.RATIO= 2.400000

 THERMODYNAMIC PROPERTIES

 P, BAR            1.0000
 T, K             1391.67
 RHO, KG/CU M    1.9240-1
 H, KJ/KG         -314.88
 U, KJ/KG         -834.64
 G, KJ/KG        -15239.3
 S, KJ/(KG)(K)    10.7241

 M, (1/n)          22.262
 (dLV/dLP)t      -1.00001
 (dLV/dLT)p        1.0001
 Cp, KJ/(KG)(K)    1.6171
 GAMMAs            1.3003
 SON VEL,M/SEC      822.1

 MOLE FRACTIONS

 CH2             8.482-16
 CH3             1.078-10
 CH2OH           2.653-14
 CH3O            9.384-16
 CH4             5.6522-7
 CH3OH           6.779-12
 *CN             1.350-14
 *CO             1.7993-1
 *CO2            2.2260-2
 COOH            4.228-11
 C2H2,acetylene  3.557-12
 CH2CO,ketene    1.299-11
 CH3CN           2.816-13
 CH3CO,acetyl    4.024-16
 C2H4            7.024-13
 CH3CHO,ethanal  1.026-14
 CH3COOH         5.667-16
 C2H6            3.194-15
 C2N2            1.922-15
 C3O2            8.412-16
 *H              2.0032-6
 HCN             5.0074-7
 HCO             9.058-10
 HCCO            2.594-16
 HNC             4.8857-9
 HNCO            3.9649-8
 HNO             1.683-14
 *H2             2.1321-1
 HCHO,formaldehy 1.7690-8
 HCOOH           5.7121-9
 H2O             5.6373-2
 H2O2            6.309-16
 *N              2.231-15
 NCO             7.898-14
 *NH             1.480-13
 NH2             1.438-10
 NH3             6.3298-6
 NH2OH           9.104-16
 *NO             1.296-10
 *N2             5.2822-1
 N2H2            1.369-15
 N2O             6.770-15
 *O              8.713-14
 *OH             1.2165-8
 *O2             1.100-14

  * THERMODYNAMIC PROPERTIES FITTED TO 20000.K









         THERMODYNAMIC EQUILIBRIUM COMBUSTION PROPERTIES AT ASSIGNED

                                   PRESSURES

 CASE =                

             REACTANT                       MOLES         ENERGY      TEMP
                                                         KJ/KG-MOL      K
 FUEL        C3H8                         1.0000000   -104543.521    300.000
 OXIDANT     O2                           5.0000000        54.358    300.000
 OXIDANT     N2                          18.8095000        53.881    300.000

 O/F=    6.23111  %FUEL= 13.829129  R,EQ.RATIO= 2.500000  PHI,EQ.RATIO= 2.500000

 THERMODYNAMIC PROPERTIES

 P, BAR            1.0000
 T, K             1335.09
 RHO, KG/CU M    1.9778-1
 H, KJ/KG         -326.25
 U, KJ/KG         -831.87
 G, KJ/KG        -14694.0
 S, KJ/(KG)(K)    10.7616

 M, (1/n)          21.955
 (dLV/dLP)t      -1.00002
 (dLV/dLT)p        1.0001
 Cp, KJ/(KG)(K)    1.6228
 GAMMAs            1.3045
 SON VEL,M/SEC      812.1

 MOLE FRACTIONS

 CH2             4.687-16
 CH3             1.524-10
 CH2OH           2.203-14
 CH3O            6.826-16
 CH4             1.8910-6
 CH3OH           1.168-11
 *CN             5.727-15
 *CO             1.8588-1
 *CO2            2.0682-2
 COOH            2.114-11
 C2H2,acetylene  7.490-12
 CH2CO,ketene    2.452-11
 O(CH)2O         1.066-16
 CH3CN           1.123-12
 CH3CO,acetyl    6.844-16
 C2H4            3.130-12
 CH3CHO,ethanal  3.270-14
 CH3COOH         1.502-15
 C2H6            2.560-14
 C2N2            2.684-15
 C3O2            1.152-15
 *H              9.0991-7
 HCN             6.7185-7
 HCO             5.569-10
 HCCO            2.040-16
 HNC             5.2112-9
 HNCO            4.3061-8
 HNO             3.855-15
 *H2             2.2722-1
 HCHO,formaldehy 1.9855-8
 HCOOH           5.3872-9
 H2O             4.8174-2
 H2O2            1.167-16
 *N              3.837-16
 NCO             3.270-14
 *NH             4.094-14
 NH2             7.743-11
 NH3             8.4731-6
 NH2OH           3.905-16
 *NO             2.949-11
 *N2             5.1803-1
 N2H2            6.730-16
 N2O             1.563-15
 *O              1.105-14
 *OH             3.5383-9
 *O2             1.136-15

  * THERMODYNAMIC PROPERTIES FITTED TO 20000.K









         THERMODYNAMIC EQUILIBRIUM COMBUSTION PROPERTIES AT ASSIGNED

                                   PRESSURES

 CASE =                

             REACTANT                       MOLES         ENERGY      TEMP
                                                         KJ/KG-MOL      K
 FUEL        C3H8                         1.0000000   -104543.521    300.000
 OXIDANT     O2                           5.0000000        54.358    300.000
 OXIDANT     N2                          18.8095000        53.881    300.000

 O/F=    5.99146  %FUEL= 14.303174  R,EQ.RATIO= 2.600000  PHI,EQ.RATIO= 2.600000

 THERMODYNAMIC PROPERTIES

 P, BAR            1.0000
 T, K             1279.73
 RHO, KG/CU M    2.0355-1
 H, KJ/KG         -337.50
 U, KJ/KG         -828.77
 G, KJ/KG        -14152.0
 S, KJ/(KG)(K)    10.7949

 M, (1/n)          21.659
 (dLV/dLP)t      -1.00004
 (dLV/dLT)p        1.0004
 Cp, KJ/(KG)(K)    1.6284
 GAMMAs            1.3087
 SON VEL,M/SEC      801.8

 MOLE FRACTIONS

 CH2             2.455-16
 CH3             2.157-10
 CH2OH           1.774-14
 CH3O            4.779-16
 CH4             6.6686-6
 CH3OH           2.033-11
 *CN             2.289-15
 *CO             1.9166-1
 *CO2            1.9098-2
 COOH            1.004-11
 C2H2,acetylene  1.623-11
 CH2CO,ketene    4.735-11
 O(CH)2O         1.143-16
 CH3CN           4.783-12
 CH3CO,acetyl    1.178-15
 C2H4            1.490-11
 CH3CHO,ethanal  1.092-13
 CH3COOH         4.137-15
 C2H5            1.052-16
 C2H6            2.254-13
 C2N2            3.806-15
 C3O2            1.595-15
 *H              3.9126-7
 HCN             9.1050-7
 HCO             3.290-10
 HCCO            1.559-16
 HNC             5.5318-9
 HNCO            4.6671-8
 HNO             8.012-16
 *H2             2.4063-1
 HCHO,formaldehy 2.2142-8
 HCOOH           5.0108-9
 H2O             4.0355-2
 NCO             1.277-14
 *NH             1.039-14
 NH2             3.966-11
 NH3             1.1383-5
 NH2OH           1.568-16
 *NO             6.118-12
 *N2             5.0824-1
 N2H2            3.138-16
 N2O             3.297-16
 *O              1.230-15
 *OH             9.469-10
 *O2             1.017-16

  * THERMODYNAMIC PROPERTIES FITTED TO 20000.K









         THERMODYNAMIC EQUILIBRIUM COMBUSTION PROPERTIES AT ASSIGNED

                                   PRESSURES

 CASE =                

             REACTANT                       MOLES         ENERGY      TEMP
                                                         KJ/KG-MOL      K
 FUEL        C3H8                         1.0000000   -104543.521    300.000
 OXIDANT     O2                           5.0000000        54.358    300.000
 OXIDANT     N2                          18.8095000        53.881    300.000

 O/F=    5.76955  %FUEL= 14.772031  R,EQ.RATIO= 2.700000  PHI,EQ.RATIO= 2.700000

 THERMODYNAMIC PROPERTIES

 P, BAR            1.0000
 T, K             1225.53
 RHO, KG/CU M    2.0977-1
 H, KJ/KG         -348.63
 U, KJ/KG         -825.35
 G, KJ/KG        -13613.6
 S, KJ/(KG)(K)    10.8239

 M, (1/n)          21.375
 (dLV/dLP)t      -1.00012
 (dLV/dLT)p        1.0013
 Cp, KJ/(KG)(K)    1.6359
 GAMMAs            1.3128
 SON VEL,M/SEC      791.1

 MOLE FRACTIONS

 CH2             1.220-16
 CH3             3.080-10
 CH2OH           1.383-14
 CH3O            3.217-16
 CH4             2.5103-5
 CH3OH           3.593-11
 *CN             8.610-16
 *CO             1.9734-1
 *CO2            1.7450-2
 COOH            4.496-12
 C2H2,acetylene  3.670-11
 CH2CO,ketene    9.445-11
 O(CH)2O         1.216-16
 C2H3,vinyl      1.243-16
 CH3CN           2.216-11
 CH3CO,acetyl    2.069-15
 C2H4            7.726-11
 CH3CHO,ethanal  3.868-13
 CH3COOH         1.193-14
 C2H5            4.306-16
 C2H6            2.232-12
 C2N2            5.542-15
 C3H4,propyne    1.332-16
 C3H6,propylene  1.367-16
 C3O2            2.249-15
 *H              1.5851-7
 HCN             1.2546-6
 HCO             1.861-10
 HCCO            1.163-16
 HNC             5.8745-9
 HNCO            5.0531-8
 HNO             1.491-16
 *H2             2.5338-1
 HCHO,formaldehy 2.4565-8
 HCOOH           4.5784-9
 H2O             3.2965-2
 NCO             4.681-15
 *NH             2.396-15
 NH2             1.926-11
 NH3             1.5382-5
 *NO             1.141-12
 *N2             4.9883-1
 N2H2            1.382-16
 *O              1.181-16
 *OH             2.303-10

  * THERMODYNAMIC PROPERTIES FITTED TO 20000.K









         THERMODYNAMIC EQUILIBRIUM COMBUSTION PROPERTIES AT ASSIGNED

                                   PRESSURES

 CASE =                

             REACTANT                       MOLES         ENERGY      TEMP
                                                         KJ/KG-MOL      K
 FUEL        C3H8                         1.0000000   -104543.521    300.000
 OXIDANT     O2                           5.0000000        54.358    300.000
 OXIDANT     N2                          18.8095000        53.881    300.000

 O/F=    5.56349  %FUEL= 15.235787  R,EQ.RATIO= 2.800000  PHI,EQ.RATIO= 2.800000

 THERMODYNAMIC PROPERTIES

 P, BAR            1.0000
 T, K             1172.70
 RHO, KG/CU M    2.1643-1
 H, KJ/KG         -359.63
 U, KJ/KG         -821.66
 G, KJ/KG        -13081.7
 S, KJ/(KG)(K)    10.8485

 M, (1/n)          21.103
 (dLV/dLP)t      -1.00043
 (dLV/dLT)p        1.0051
 Cp, KJ/(KG)(K)    1.6565
 GAMMAs            1.3155
 SON VEL,M/SEC      779.6

 MOLE FRACTIONS

 CH3             4.467-10
 CH2OH           1.045-14
 CH3O            2.082-16
 CH4             1.0173-4
 CH3OH           6.453-11
 *CN             3.065-16
 *CO             2.0296-1
 *CO2            1.5682-2
 COOH            1.883-12
 C2H2,acetylene  8.783-11
 CH2CO,ketene    1.961-10
 O(CH)2O         1.284-16
 C2H3,vinyl      2.298-16
 CH3CN           1.134-10
 CH3CO,acetyl    3.740-15
 C2H4            4.432-10
 CH3CHO,ethanal  1.467-12
 CH3COOH         3.610-14
 C2H5            1.912-15
 C2H6            2.526-11
 C2H5OH          2.241-16
 C2N2            8.405-15
 C3H4,allene     3.159-16
 C3H4,propyne    1.043-15
 C3H6,propylene  2.411-15
 C3O2            3.253-15
 *H              6.0424-8
 HCN             1.7703-6
 HCO             1.008-10
 HNC             6.2825-9
 HNCO            5.4681-8
 *H2             2.6534-1
 HCHO,formaldehy 2.7121-8
 HCOOH           4.0856-9
 H2O             2.6088-2
 NCO             1.608-15
 *NH             5.014-16
 NH2             8.856-12
 NH3             2.0914-5
 *NO             1.897-13
 *N2             4.8981-1
 *OH             5.048-11

  * THERMODYNAMIC PROPERTIES FITTED TO 20000.K









         THERMODYNAMIC EQUILIBRIUM COMBUSTION PROPERTIES AT ASSIGNED

                                   PRESSURES

 CASE =                

             REACTANT                       MOLES         ENERGY      TEMP
                                                         KJ/KG-MOL      K
 FUEL        C3H8                         1.0000000   -104543.521    300.000
 OXIDANT     O2                           5.0000000        54.358    300.000
 OXIDANT     N2                          18.8095000        53.881    300.000

 O/F=    5.37165  %FUEL= 15.694523  R,EQ.RATIO= 2.900000  PHI,EQ.RATIO= 2.900000

 THERMODYNAMIC PROPERTIES

 P, BAR            1.0000
 T, K             1122.50
 RHO, KG/CU M    2.2342-1
 H, KJ/KG         -370.51
 U, KJ/KG         -818.09
 G, KJ/KG        -12570.6
 S, KJ/(KG)(K)    10.8686

 M, (1/n)          20.852
 (dLV/dLP)t      -1.00172
 (dLV/dLT)p        1.0219
 Cp, KJ/(KG)(K)    1.7446
 GAMMAs            1.3105
 SON VEL,M/SEC      765.9

 MOLE FRACTIONS

 CH3             6.582-10
 CH2OH           7.696-15
 CH3O            1.308-16
 CH4             4.3374-4
 CH3OH           1.162-10
 *CN             1.066-16
 *CO             2.0844-1
 *CO2            1.3778-2
 COOH            7.463-13
 C2H2,acetylene  2.222-10
 CH2CO,ketene    4.207-10
 O(CH)2O         1.345-16
 C2H3,vinyl      4.424-16
 CH3CN           6.289-10
 CH3CO,acetyl    6.923-15
 C2H4            2.7514-9
 CH3CHO,ethanal  5.833-12
 CH3COOH         1.119-13
 C2H5            9.064-15
 C2H6            3.149-10
 C2H5OH          1.299-15
 C2N2            1.339-14
 C3H4,allene     2.672-15
 C3H4,propyne    9.092-15
 C3H6,propylene  4.837-14
 C3H8            8.197-16
 C3O2            4.834-15
 *H              2.2156-8
 HCN             2.5610-6
 HCO             5.303-11
 HNC             6.8176-9
 HNCO            5.9050-8
 *H2             2.7603-1
 HCHO,formaldehy 2.9738-8
 HCOOH           3.5401-9
 H2O             1.9928-2
 NCO             5.306-16
 NH2             3.924-12
 NH3             2.8409-5
 *NO             2.901-14
 *N2             4.8136-1
 *OH             1.023-11

  * THERMODYNAMIC PROPERTIES FITTED TO 20000.K









         THERMODYNAMIC EQUILIBRIUM COMBUSTION PROPERTIES AT ASSIGNED

                                   PRESSURES

 CASE =                

             REACTANT                       MOLES         ENERGY      TEMP
                                                         KJ/KG-MOL      K
 FUEL        C3H8                         1.0000000   -104543.521    300.000
 OXIDANT     O2                           5.0000000        54.358    300.000
 OXIDANT     N2                          18.8095000        53.881    300.000

 O/F=    5.19259  %FUEL= 16.148320  R,EQ.RATIO= 3.000000  PHI,EQ.RATIO= 3.000000

 THERMODYNAMIC PROPERTIES

 P, BAR            1.0000
 T, K             1079.59
 RHO, KG/CU M    2.3003-1
 H, KJ/KG         -381.28
 U, KJ/KG         -816.01
 G, KJ/KG        -12132.0
 S, KJ/(KG)(K)    10.8844

 M, (1/n)          20.648
 (dLV/dLP)t      -1.00609
 (dLV/dLT)p        1.0815
 Cp, KJ/(KG)(K)    2.0722
 GAMMAs            1.2840
 SON VEL,M/SEC      747.1

 MOLE FRACTIONS

 CH3             9.543-10
 CH2OH           5.713-15
 CH4             1.6805-3
 CH3OH           1.971-10
 *CO             2.1326-1
 *CO2            1.1899-2
 COOH            3.064-13
 C2H2,acetylene  5.478-10
 CH2CO,ketene    8.677-10
 O(CH)2O         1.392-16
 C2H3,vinyl      8.424-16
 CH3CN           3.2035-9
 CH3CO,acetyl    1.241-14
 C2H4            1.5486-8
 CH3CHO,ethanal  2.116-11
 CH3COOH         3.148-13
 C2H5            3.955-14
 C2H6            3.3579-9
 C2H5OH          6.635-15
 C2N2            2.171-14
 C3H3,2-propynl  1.278-16
 C3H4,allene     2.055-14
 C3H4,propyne    7.188-14
 C3H5,allyl      4.021-16
 C3H6,propylene  8.228-13
 C3H6,cyclo-     5.013-16
 C3H6O,acetone   1.180-15
 C3H6O,propanal  1.173-16
 C3H8            2.500-14
 C3O2            7.148-15
 *H              8.7017-9
 HCN             3.6841-6
 HCO             2.904-11
 HNC             7.5097-9
 HNCO            6.3122-8
 *H2             2.8405-1
 HCHO,formaldehy 3.2077-8
 HCOOH           2.9977-9
 H2O             1.4991-2
 NCO             1.895-16
 NH2             1.828-12
 NH3             3.7293-5
 *NO             4.949-15
 *N2             4.7407-1
 *OH             2.257-12

  * THERMODYNAMIC PROPERTIES FITTED TO 20000.K









         THERMODYNAMIC EQUILIBRIUM COMBUSTION PROPERTIES AT ASSIGNED

                                   PRESSURES

 CASE =                

             REACTANT                       MOLES         ENERGY      TEMP
                                                         KJ/KG-MOL      K
 FUEL        C3H8                         1.0000000   -104543.521    300.000
 OXIDANT     O2                           5.0000000        54.358    300.000
 OXIDANT     N2                          18.8095000        53.881    300.000

 O/F=    5.02509  %FUEL= 16.597258  R,EQ.RATIO= 3.100000  PHI,EQ.RATIO= 3.100000

 THERMODYNAMIC PROPERTIES

 P, BAR            1.0000
 T, K             1049.79
 RHO, KG/CU M    2.3510-1
 H, KJ/KG         -391.93
 U, KJ/KG         -817.28
 G, KJ/KG        -11831.0
 S, KJ/(KG)(K)    10.8965

 M, (1/n)          20.521
 (dLV/dLP)t      -1.01389
 (dLV/dLT)p        1.1920
 Cp, KJ/(KG)(K)    2.7111
 GAMMAs            1.2476
 SON VEL,M/SEC      728.5

 MOLE FRACTIONS

 CH3             1.2755-9
 CH2OH           4.521-15
 CH4             4.6423-3
 CH3OH           2.869-10
 *CO             2.1669-1
 *CO2            1.0379-2
 COOH            1.533-13
 C2H2,acetylene  1.1200-9
 CH2CO,ketene    1.5123-9
 O(CH)2O         1.415-16
 C2H3,vinyl      1.416-15
 CH3CN           1.1182-8
 CH3CO,acetyl    1.941-14
 C2H4            5.7971-8
 CH3CHO,ethanal  5.565-11
 CH3COOH         6.677-13
 C2H5            1.220-13
 C2H6            2.0046-8
 C2H5OH          2.232-14
 C2N2            3.279-14
 C3H3,2-propynl  3.871-16
 C3H4,allene     9.961-14
 C3H4,propyne    3.557-13
 C3H5,allyl      2.149-15
 C3H6,propylene  7.136-12
 C3H6,cyclo-     3.913-15
 C3H6O,acetone   7.647-15
 C3H6O,propanal  6.788-16
 C3H8            3.319-13
 C3O2            9.806-15
 C4H6,butadiene  9.790-16
 C4H8,1-butene   1.112-16
 C4H8,isobutene  1.339-16
 C6H6            7.216-16
 *H              4.3330-9
 HCN             4.9357-6
 HCO             1.847-11
 HNC             8.2522-9
 HNCO            6.6017-8
 *H2             2.8789-1
 HCHO,formaldehy 3.3632-8
 HCOOH           2.5587-9
 H2O             1.1709-2
 NH2             1.028-12
 NH3             4.5082-5
 *NO             1.295-15
 *N2             4.6863-1
 *OH             7.118-13

  * THERMODYNAMIC PROPERTIES FITTED TO 20000.K









         THERMODYNAMIC EQUILIBRIUM COMBUSTION PROPERTIES AT ASSIGNED

                                   PRESSURES

 CASE =                

             REACTANT                       MOLES         ENERGY      TEMP
                                                         KJ/KG-MOL      K
 FUEL        C3H8                         1.0000000   -104543.521    300.000
 OXIDANT     O2                           5.0000000        54.358    300.000
 OXIDANT     N2                          18.8095000        53.881    300.000

 O/F=    4.86806  %FUEL= 17.041414  R,EQ.RATIO= 3.200000  PHI,EQ.RATIO= 3.200000

 THERMODYNAMIC PROPERTIES

 P, BAR            1.0000
 T, K             1042.61
 RHO, KG/CU M    2.3624-1
 H, KJ/KG         -402.47
 U, KJ/KG         -825.78
 G, KJ/KG        -11774.1
 S, KJ/(KG)(K)    10.9069

 M, (1/n)          20.479
 MW, MOL WT        20.306
 (dLV/dLP)t      -1.02371
 (dLV/dLT)p        1.3794
 Cp, KJ/(KG)(K)    4.1971
 GAMMAs            1.1910
 SON VEL,M/SEC      710.0

 MOLE FRACTIONS

 CH3             1.2005-9
 CH2OH           4.224-15
 CH4             5.2769-3
 CH3OH           3.145-10
 *CO             2.1071-1
 *CO2            1.0993-2
 COOH            1.424-13
 C2H2,acetylene  1.0045-9
 CH2CO,ketene    1.4746-9
 O(CH)2O         1.365-16
 C2H3,vinyl      1.218-15
 CH3CN           1.1522-8
 CH3CO,acetyl    1.856-14
 C2H4            6.1375-8
 CH3CHO,ethanal  6.104-11
 CH3COOH         7.854-13
 C2H5            1.240-13
 C2H6            2.4205-8
 C2H5OH          2.643-14
 C2N2            2.674-14
 C3H3,2-propynl  3.332-16
 C3H4,allene     9.713-14
 C3H4,propyne    3.486-13
 C3H5,allyl      2.163-15
 C3H6,propylene  8.167-12
 C3H6,cyclo-     4.362-15
 C3H6O,acetone   9.207-15
 C3H6O,propanal  7.945-16
 C3H8            4.288-13
 C3O2            8.669-15
 C4H6,butadiene  1.068-15
 C4H8,1-butene   1.362-16
 C4H8,tr2-butene 1.122-16
 C4H8,isobutene  1.662-16
 C6H6            8.582-16
 *H              3.6373-9
 HCN             4.5691-6
 HCO             1.610-11
 HNC             7.2705-9
 HNCO            6.5001-8
 *H2             2.9074-1
 HCHO,formaldehy 3.3458-8
 HCOOH           2.7363-9
 H2O             1.2536-2
 NH2             8.946-13
 NH3             4.7822-5
 *NO             1.037-15
 *N2             4.6125-1
 *OH             6.031-13
 C(gr)           8.4383-3

  * THERMODYNAMIC PROPERTIES FITTED TO 20000.K









         THERMODYNAMIC EQUILIBRIUM COMBUSTION PROPERTIES AT ASSIGNED

                                   PRESSURES

 CASE =                

             REACTANT                       MOLES         ENERGY      TEMP
                                                         KJ/KG-MOL      K
 FUEL        C3H8                         1.0000000   -104543.521    300.000
 OXIDANT     O2                           5.0000000        54.358    300.000
 OXIDANT     N2                          18.8095000        53.881    300.000

 O/F=    4.72054  %FUEL= 17.480865  R,EQ.RATIO= 3.300000  PHI,EQ.RATIO= 3.300000

 THERMODYNAMIC PROPERTIES

 P, BAR            1.0000
 T, K             1036.66
 RHO, KG/CU M    2.3715-1
 H, KJ/KG         -412.90
 U, KJ/KG         -834.57
 G, KJ/KG        -11730.1
 S, KJ/(KG)(K)    10.9170

 M, (1/n)          20.441
 MW, MOL WT        20.092
 (dLV/dLP)t      -1.02530
 (dLV/dLT)p        1.4059
 Cp, KJ/(KG)(K)    4.4042
 GAMMAs            1.1866
 SON VEL,M/SEC      707.4

 MOLE FRACTIONS

 CH3             1.1160-9
 CH2OH           3.979-15
 CH4             5.7541-3
 CH3OH           3.391-10
 *CO             2.0445-1
 *CO2            1.1685-2
 COOH            1.357-13
 C2H2,acetylene  8.739-10
 CH2CO,ketene    1.4031-9
 O(CH)2O         1.312-16
 C2H3,vinyl      1.025-15
 CH3CN           1.1269-8
 CH3CO,acetyl    1.740-14
 C2H4            6.1522-8
 CH3CHO,ethanal  6.427-11
 CH3COOH         8.942-13
 C2H5            1.203-13
 C2H6            2.7163-8
 C2H5OH          2.976-14
 C2N2            2.140-14
 C3H3,2-propynl  2.735-16
 C3H4,allene     8.866-14
 C3H4,propyne    3.196-13
 C3H5,allyl      2.031-15
 C3H6,propylene  8.549-12
 C3H6,cyclo-     4.467-15
 C3H6O,acetone   1.026-14
 C3H6O,propanal  8.642-16
 C3H8            4.983-13
 C3O2            7.539-15
 C4H6,butadiene  1.049-15
 C4H8,1-butene   1.477-16
 C4H8,cis2-buten 1.067-16
 C4H8,tr2-butene 1.226-16
 C4H8,isobutene  1.821-16
 C6H6            8.618-16
 *H              3.1405-9
 HCN             4.1757-6
 HCO             1.427-11
 HNC             6.3745-9
 HNCO            6.3789-8
 *H2             2.9347-1
 HCHO,formaldehy 3.3179-8
 HCOOH           2.9400-9
 H2O             1.3550-2
 NH2             7.964-13
 NH3             5.0345-5
 *NO             8.766-16
 *N2             4.5397-1
 *OH             5.352-13
 C(gr)           1.7063-2

  * THERMODYNAMIC PROPERTIES FITTED TO 20000.K









         THERMODYNAMIC EQUILIBRIUM COMBUSTION PROPERTIES AT ASSIGNED

                                   PRESSURES

 CASE =                

             REACTANT                       MOLES         ENERGY      TEMP
                                                         KJ/KG-MOL      K
 FUEL        C3H8                         1.0000000   -104543.521    300.000
 OXIDANT     O2                           5.0000000        54.358    300.000
 OXIDANT     N2                          18.8095000        53.881    300.000

 O/F=    4.58170  %FUEL= 17.915685  R,EQ.RATIO= 3.400000  PHI,EQ.RATIO= 3.400000

 THERMODYNAMIC PROPERTIES

 P, BAR            1.0000
 T, K             1031.07
 RHO, KG/CU M    2.3802-1
 H, KJ/KG         -423.22
 U, KJ/KG         -843.35
 G, KJ/KG        -11689.4
 S, KJ/(KG)(K)    10.9267

 M, (1/n)          20.405
 MW, MOL WT        19.886
 (dLV/dLP)t      -1.02685
 (dLV/dLT)p        1.4317
 Cp, KJ/(KG)(K)    4.6067
 GAMMAs            1.1827
 SON VEL,M/SEC      704.9

 MOLE FRACTIONS

 CH3             1.0410-9
 CH2OH           3.755-15
 CH4             6.2468-3
 CH3OH           3.639-10
 *CO             1.9837-1
 *CO2            1.2349-2
 COOH            1.294-13
 C2H2,acetylene  7.653-10
 CH2CO,ketene    1.3363-9
 O(CH)2O         1.261-16
 C2H3,vinyl      8.692-16
 CH3CN           1.1030-8
 CH3CO,acetyl    1.634-14
 C2H4            6.1653-8
 CH3CHO,ethanal  6.741-11
 CH3COOH         1.009-12
 C2H5            1.169-13
 C2H6            3.0307-8
 C2H5OH          3.326-14
 C2N2            1.731-14
 C3H3,2-propynl  2.267-16
 C3H4,allene     8.129-14
 C3H4,propyne    2.942-13
 C3H5,allyl      1.913-15
 C3H6,propylene  8.928-12
 C3H6,cyclo-     4.569-15
 C3H6O,acetone   1.135-14
 C3H6O,propanal  9.350-16
 C3H8            5.747-13
 C3O2            6.583-15
 C4H6,butadiene  1.030-15
 C4H8,1-butene   1.594-16
 C4H8,cis2-buten 1.159-16
 C4H8,tr2-butene 1.332-16
 C4H8,isobutene  1.987-16
 C6H6            8.651-16
 *H              2.7306-9
 HCN             3.8317-6
 HCO             1.271-11
 HNC             5.6234-9
 HNCO            6.2559-8
 *H2             2.9604-1
 HCHO,formaldehy 3.2870-8
 HCOOH           3.1395-9
 H2O             1.4570-2
 NH2             7.128-13
 NH3             5.2852-5
 *NO             7.456-16
 *N2             4.4695-1
 *OH             4.770-13
 C(gr)           2.5420-2

  * THERMODYNAMIC PROPERTIES FITTED TO 20000.K









         THERMODYNAMIC EQUILIBRIUM COMBUSTION PROPERTIES AT ASSIGNED

                                   PRESSURES

 CASE =                

             REACTANT                       MOLES         ENERGY      TEMP
                                                         KJ/KG-MOL      K
 FUEL        C3H8                         1.0000000   -104543.521    300.000
 OXIDANT     O2                           5.0000000        54.358    300.000
 OXIDANT     N2                          18.8095000        53.881    300.000

 O/F=    4.45080  %FUEL= 18.345946  R,EQ.RATIO= 3.500000  PHI,EQ.RATIO= 3.500000

 THERMODYNAMIC PROPERTIES

 P, BAR            1.0000
 T, K             1025.80
 RHO, KG/CU M    2.3884-1
 H, KJ/KG         -433.42
 U, KJ/KG         -852.12
 G, KJ/KG        -11651.7
 S, KJ/(KG)(K)    10.9362

 M, (1/n)          20.370
 MW, MOL WT        19.688
 (dLV/dLP)t      -1.02835
 (dLV/dLT)p        1.4566
 Cp, KJ/(KG)(K)    4.8038
 GAMMAs            1.1791
 SON VEL,M/SEC      702.6

 MOLE FRACTIONS

 CH3             9.740-10
 CH2OH           3.548-15
 CH4             6.7547-3
 CH3OH           3.886-10
 *CO             1.9247-1
 *CO2            1.2984-2
 COOH            1.233-13
 C2H2,acetylene  6.742-10
 CH2CO,ketene    1.2739-9
 O(CH)2O         1.210-16
 C2H3,vinyl      7.428-16
 CH3CN           1.0804-8
 CH3CO,acetyl    1.537-14
 C2H4            6.1766-8
 CH3CHO,ethanal  7.045-11
 CH3COOH         1.129-12
 C2H5            1.137-13
 C2H6            3.3638-8
 C2H5OH          3.693-14
 C2N2            1.413-14
 C3H3,2-propynl  1.895-16
 C3H4,allene     7.481-14
 C3H4,propyne    2.718-13
 C3H5,allyl      1.806-15
 C3H6,propylene  9.303-12
 C3H6,cyclo-     4.667-15
 C3H6O,acetone   1.248-14
 C3H6O,propanal  1.006-15
 C3H8            6.583-13
 C3O2            5.770-15
 C4H6,butadiene  1.013-15
 C4H8,1-butene   1.715-16
 C4H8,cis2-buten 1.255-16
 C4H8,tr2-butene 1.443-16
 C4H8,isobutene  2.158-16
 C6H6            8.681-16
 *H              2.3893-9
 HCN             3.5291-6
 HCO             1.136-11
 HNC             4.9881-9
 HNCO            6.1317-8
 *H2             2.9845-1
 HCHO,formaldehy 3.2532-8
 HCOOH           3.3339-9
 H2O             1.5591-2
 NH2             6.411-13
 NH3             5.5342-5
 *NO             6.380-16
 *N2             4.4017-1
 *OH             4.269-13
 C(gr)           3.3519-2

  * THERMODYNAMIC PROPERTIES FITTED TO 20000.K









         THERMODYNAMIC EQUILIBRIUM COMBUSTION PROPERTIES AT ASSIGNED

                                   PRESSURES

 CASE =                

             REACTANT                       MOLES         ENERGY      TEMP
                                                         KJ/KG-MOL      K
 FUEL        C3H8                         1.0000000   -104543.521    300.000
 OXIDANT     O2                           5.0000000        54.358    300.000
 OXIDANT     N2                          18.8095000        53.881    300.000

 O/F=    4.32716  %FUEL= 18.771720  R,EQ.RATIO= 3.600000  PHI,EQ.RATIO= 3.600000

 THERMODYNAMIC PROPERTIES

 P, BAR            1.0000
 T, K             1020.80
 RHO, KG/CU M    2.3962-1
 H, KJ/KG         -443.53
 U, KJ/KG         -860.86
 G, KJ/KG        -11616.5
 S, KJ/(KG)(K)    10.9453

 M, (1/n)          20.337
 MW, MOL WT        19.496
 (dLV/dLP)t      -1.02982
 (dLV/dLT)p        1.4808
 Cp, KJ/(KG)(K)    4.9951
 GAMMAs            1.1760
 SON VEL,M/SEC      700.6

 MOLE FRACTIONS

 CH3             9.138-10
 CH2OH           3.356-15
 CH4             7.2773-3
 CH3OH           4.133-10
 *CO             1.8675-1
 *CO2            1.3589-2
 COOH            1.174-13
 C2H2,acetylene  5.971-10
 CH2CO,ketene    1.2154-9
 O(CH)2O         1.161-16
 C2H3,vinyl      6.391-16
 CH3CN           1.0589-8
 CH3CO,acetyl    1.447-14
 C2H4            6.1860-8
 CH3CHO,ethanal  7.338-11
 CH3COOH         1.255-12
 C2H5            1.107-13
 C2H6            3.7155-8
 C2H5OH          4.077-14
 C2N2            1.164-14
 C3H3,2-propynl  1.596-16
 C3H4,allene     6.909-14
 C3H4,propyne    2.519-13
 C3H5,allyl      1.709-15
 C3H6,propylene  9.674-12
 C3H6,cyclo-     4.762-15
 C3H6O,acetone   1.365-14
 C3H6O,propanal  1.079-15
 C3H8            7.495-13
 C3O2            5.075-15
 C4H6,butadiene  9.961-16
 C4H8,1-butene   1.838-16
 C4H8,cis2-buten 1.353-16
 C4H8,tr2-butene 1.556-16
 C4H8,isobutene  2.335-16
 C6H6            8.708-16
 *H              2.1026-9
 HCN             3.2611-6
 HCO             1.020-11
 HNC             4.4467-9
 HNCO            6.0069-8
 *H2             3.0073-1
 HCHO,formaldehy 3.2170-8
 HCOOH           3.5227-9
 H2O             1.6614-2
 NH2             5.792-13
 NH3             5.7815-5
 *NO             5.490-16
 *N2             4.3361-1
 *OH             3.834-13
 C(gr)           4.1366-2

  * THERMODYNAMIC PROPERTIES FITTED TO 20000.K



