
 *******************************************************************************

         NASA-GLENN CHEMICAL EQUILIBRIUM PROGRAM CEA2, MAY 21, 2004
                   BY  BONNIE MCBRIDE AND SANFORD GORDON
      REFS: NASA RP-1311, PART I, 1994 AND NASA RP-1311, PART II, 1996

 *******************************************************************************



 problem    phi,eq.ratio=3.7,3.8,3.9,4,
       hp   p,bar=1,  t,k=3800
 react
   fuel=C3H8 moles=1 t,k=300
   oxid=O2 moles=5 t,k=300
   oxid=N2 moles=18.8095 t,k=300
 output
      trace=1e-16 siunits short
 end




         THERMODYNAMIC EQUILIBRIUM COMBUSTION PROPERTIES AT ASSIGNED

                                   PRESSURES

 CASE =                

             REACTANT                       MOLES         ENERGY      TEMP
                                                         KJ/KG-MOL      K
 FUEL        C3H8                         1.0000000   -104543.521    300.000
 OXIDANT     O2                           5.0000000        54.358    300.000
 OXIDANT     N2                          18.8095000        53.881    300.000

 O/F=    4.21021  %FUEL= 19.193077  R,EQ.RATIO= 3.700000  PHI,EQ.RATIO= 3.700000

 THERMODYNAMIC PROPERTIES

 P, BAR            1.0000
 T, K             1016.06
 RHO, KG/CU M    2.4036-1
 H, KJ/KG         -453.52
 U, KJ/KG         -869.56
 G, KJ/KG        -11583.6
 S, KJ/(KG)(K)    10.9542

 M, (1/n)          20.306
 MW, MOL WT        19.311
 (dLV/dLP)t      -1.03124
 (dLV/dLT)p        1.5041
 Cp, KJ/(KG)(K)    5.1802
 GAMMAs            1.1731
 SON VEL,M/SEC      698.6

 MOLE FRACTIONS

 CH3             8.593-10
 CH2OH           3.178-15
 CH4             7.8141-3
 CH3OH           4.378-10
 *CO             1.8121-1
 *CO2            1.4165-2
 COOH            1.118-13
 C2H2,acetylene  5.314-10
 CH2CO,ketene    1.1603-9
 O(CH)2O         1.114-16
 C2H3,vinyl      5.532-16
 CH3CN           1.0383-8
 CH3CO,acetyl    1.365-14
 C2H4            6.1935-8
 CH3CHO,ethanal  7.621-11
 CH3COOH         1.385-12
 C2H5            1.078-13
 C2H6            4.0860-8
 C2H5OH          4.476-14
 C2N2            9.658-15
 C3H3,2-propynl  1.354-16
 C3H4,allene     6.400-14
 C3H4,propyne    2.342-13
 C3H5,allyl      1.620-15
 C3H6,propylene  1.004-11
 C3H6,cyclo-     4.853-15
 C3H6O,acetone   1.486-14
 C3H6O,propanal  1.151-15
 C3H8            8.484-13
 C3O2            4.477-15
 C4H6,butadiene  9.801-16
 C4H8,1-butene   1.964-16
 C4H8,cis2-buten 1.453-16
 C4H8,tr2-butene 1.673-16
 C4H8,isobutene  2.518-16
 C6H6            8.732-16
 *H              1.8598-9
 HCN             3.0226-6
 HCO             9.178-12
 HNC             3.9819-9
 HNCO            5.8819-8
 *H2             3.0287-1
 HCHO,formaldehy 3.1788-8
 HCOOH           3.7052-9
 H2O             1.7635-2
 NH2             5.252-13
 NH3             6.0270-5
 *NO             4.747-16
 *N2             4.2727-1
 *OH             3.454-13
 C(gr)           4.8971-2

  * THERMODYNAMIC PROPERTIES FITTED TO 20000.K









         THERMODYNAMIC EQUILIBRIUM COMBUSTION PROPERTIES AT ASSIGNED

                                   PRESSURES

 CASE =                

             REACTANT                       MOLES         ENERGY      TEMP
                                                         KJ/KG-MOL      K
 FUEL        C3H8                         1.0000000   -104543.521    300.000
 OXIDANT     O2                           5.0000000        54.358    300.000
 OXIDANT     N2                          18.8095000        53.881    300.000

 O/F=    4.09942  %FUEL= 19.610085  R,EQ.RATIO= 3.800000  PHI,EQ.RATIO= 3.800000

 THERMODYNAMIC PROPERTIES

 P, BAR            1.0000
 T, K             1011.55
 RHO, KG/CU M    2.4107-1
 H, KJ/KG         -463.42
 U, KJ/KG         -878.23
 G, KJ/KG        -11552.8
 S, KJ/(KG)(K)    10.9628

 M, (1/n)          20.276
 MW, MOL WT        19.133
 (dLV/dLP)t      -1.03261
 (dLV/dLT)p        1.5265
 Cp, KJ/(KG)(K)    5.3589
 GAMMAs            1.1706
 SON VEL,M/SEC      696.8

 MOLE FRACTIONS

 CH3             8.099-10
 CH2OH           3.012-15
 CH4             8.3650-3
 CH3OH           4.622-10
 *CO             1.7585-1
 *CO2            1.4709-2
 COOH            1.065-13
 C2H2,acetylene  4.750-10
 CH2CO,ketene    1.1085-9
 O(CH)2O         1.068-16
 C2H3,vinyl      4.814-16
 CH3CN           1.0186-8
 CH3CO,acetyl    1.288-14
 C2H4            6.1991-8
 CH3CHO,ethanal  7.894-11
 CH3COOH         1.520-12
 C2H5            1.051-13
 C2H6            4.4751-8
 C2H5OH          4.890-14
 C2N2            8.071-15
 C3H3,2-propynl  1.156-16
 C3H4,allene     5.944-14
 C3H4,propyne    2.183-13
 C3H5,allyl      1.539-15
 C3H6,propylene  1.040-11
 C3H6,cyclo-     4.941-15
 C3H6O,acetone   1.609-14
 C3H6O,propanal  1.223-15
 C3H8            9.553-13
 C3O2            3.961-15
 C4H6,butadiene  9.647-16
 C4H8,1-butene   2.093-16
 C4H8,cis2-buten 1.557-16
 C4H8,tr2-butene 1.793-16
 C4H8,isobutene  2.706-16
 C6H6            8.751-16
 *H              1.6528-9
 HCN             2.8091-6
 HCO             8.286-12
 HNC             3.5802-9
 HNCO            5.7571-8
 *H2             3.0488-1
 HCHO,formaldehy 3.1387-8
 HCOOH           3.8812-9
 H2O             1.8652-2
 NH2             4.780-13
 NH3             6.2707-5
 *NO             4.123-16
 *N2             4.2114-1
 *OH             3.121-13
 C(gr)           5.6342-2

  * THERMODYNAMIC PROPERTIES FITTED TO 20000.K









         THERMODYNAMIC EQUILIBRIUM COMBUSTION PROPERTIES AT ASSIGNED

                                   PRESSURES

 CASE =                

             REACTANT                       MOLES         ENERGY      TEMP
                                                         KJ/KG-MOL      K
 FUEL        C3H8                         1.0000000   -104543.521    300.000
 OXIDANT     O2                           5.0000000        54.358    300.000
 OXIDANT     N2                          18.8095000        53.881    300.000

 O/F=    3.99430  %FUEL= 20.022812  R,EQ.RATIO= 3.900000  PHI,EQ.RATIO= 3.900000

 THERMODYNAMIC PROPERTIES

 P, BAR            1.0000
 T, K             1007.24
 RHO, KG/CU M    2.4176-1
 H, KJ/KG         -473.21
 U, KJ/KG         -886.85
 G, KJ/KG        -11523.7
 S, KJ/(KG)(K)    10.9711

 M, (1/n)          20.246
 MW, MOL WT        18.961
 (dLV/dLP)t      -1.03394
 (dLV/dLT)p        1.5481
 Cp, KJ/(KG)(K)    5.5309
 GAMMAs            1.1682
 SON VEL,M/SEC      695.1

 MOLE FRACTIONS

 CH3             7.648-10
 CH2OH           2.857-15
 CH4             8.9295-3
 CH3OH           4.864-10
 *CO             1.7065-1
 *CO2            1.5223-2
 COOH            1.013-13
 C2H2,acetylene  4.263-10
 CH2CO,ketene    1.0596-9
 O(CH)2O         1.023-16
 C2H3,vinyl      4.210-16
 CH3CN           9.9968-9
 CH3CO,acetyl    1.217-14
 C2H4            6.2026-8
 CH3CHO,ethanal  8.155-11
 CH3COOH         1.658-12
 C2H5            1.026-13
 C2H6            4.8830-8
 C2H5OH          5.318-14
 C2N2            6.788-15
 C3H4,allene     5.535-14
 C3H4,propyne    2.039-13
 C3H5,allyl      1.464-15
 C3H6,propylene  1.076-11
 C3H6,cyclo-     5.025-15
 C3H6O,acetone   1.736-14
 C3H6O,propanal  1.296-15
 C3H8            1.071-12
 C3O2            3.513-15
 C4H6,butadiene  9.497-16
 C4H8,1-butene   2.223-16
 C4H8,cis2-buten 1.662-16
 C4H8,tr2-butene 1.915-16
 C4H8,isobutene  2.899-16
 C6H6            8.767-16
 *H              1.4750-9
 HCN             2.6172-6
 HCO             7.502-12
 HNC             3.2310-9
 HNCO            5.6329-8
 *H2             3.0677-1
 HCHO,formaldehy 3.0971-8
 HCOOH           4.0502-9
 H2O             1.9666-2
 NH2             4.365-13
 NH3             6.5125-5
 *NO             3.596-16
 *N2             4.1521-1
 *OH             2.828-13
 C(gr)           6.3486-2

  * THERMODYNAMIC PROPERTIES FITTED TO 20000.K









         THERMODYNAMIC EQUILIBRIUM COMBUSTION PROPERTIES AT ASSIGNED

                                   PRESSURES

 CASE =                

             REACTANT                       MOLES         ENERGY      TEMP
                                                         KJ/KG-MOL      K
 FUEL        C3H8                         1.0000000   -104543.521    300.000
 OXIDANT     O2                           5.0000000        54.358    300.000
 OXIDANT     N2                          18.8095000        53.881    300.000

 O/F=    3.89445  %FUEL= 20.431321  R,EQ.RATIO= 4.000000  PHI,EQ.RATIO= 4.000000

 THERMODYNAMIC PROPERTIES

 P, BAR            1.0000
 T, K             1003.11
 RHO, KG/CU M    2.4241-1
 H, KJ/KG         -482.90
 U, KJ/KG         -895.42
 G, KJ/KG        -11496.3
 S, KJ/(KG)(K)    10.9792

 M, (1/n)          20.218
 MW, MOL WT        18.795
 (dLV/dLP)t      -1.03522
 (dLV/dLT)p        1.5688
 Cp, KJ/(KG)(K)    5.6963
 GAMMAs            1.1661
 SON VEL,M/SEC      693.6

 MOLE FRACTIONS

 CH3             7.235-10
 CH2OH           2.712-15
 CH4             9.5074-3
 CH3OH           5.103-10
 *CO             1.6562-1
 *CO2            1.5707-2
 COOH            9.644-14
 C2H2,acetylene  3.840-10
 CH2CO,ketene    1.0133-9
 C2H3,vinyl      3.698-16
 CH3CN           9.8142-9
 CH3CO,acetyl    1.151-14
 C2H4            6.2041-8
 CH3CHO,ethanal  8.406-11
 CH3COOH         1.799-12
 C2H5            1.001-13
 C2H6            5.3096-8
 C2H5OH          5.758-14
 C2N2            5.742-15
 C3H4,allene     5.165-14
 C3H4,propyne    1.909-13
 C3H5,allyl      1.395-15
 C3H6,propylene  1.111-11
 C3H6,cyclo-     5.106-15
 C3H6O,acetone   1.865-14
 C3H6O,propanal  1.368-15
 C3H8            1.194-12
 C3O2            3.124-15
 C4H6,butadiene  9.351-16
 C4H8,1-butene   2.356-16
 C4H8,cis2-buten 1.770-16
 C4H8,tr2-butene 2.040-16
 C4H8,isobutene  3.097-16
 C6H6            8.779-16
 *H              1.3215-9
 HCN             2.4440-6
 HCO             6.808-12
 HNC             2.9257-9
 HNCO            5.5095-8
 *H2             3.0854-1
 HCHO,formaldehy 3.0542-8
 HCOOH           4.2122-9
 H2O             2.0673-2
 NH2             3.997-13
 NH3             6.7525-5
 *NO             3.148-16
 *N2             4.0946-1
 *OH             2.568-13
 C(gr)           7.0412-2

  * THERMODYNAMIC PROPERTIES FITTED TO 20000.K



