
 *******************************************************************************

         NASA-GLENN CHEMICAL EQUILIBRIUM PROGRAM CEA2, MAY 21, 2004
                   BY  BONNIE MCBRIDE AND SANFORD GORDON
      REFS: NASA RP-1311, PART I, 1994 AND NASA RP-1311, PART II, 1996

 *******************************************************************************



 problem    phi,eq.ratio=3.7,3.8,3.9,4,
       hp   p,bar=1,  t,k=3800
 react
   fuel=C6H6 moles=1 t,k=300
   oxid=O2 moles=7.5 t,k=300
 output
      trace=1e-16 siunits short
 end




         THERMODYNAMIC EQUILIBRIUM COMBUSTION PROPERTIES AT ASSIGNED

                                   PRESSURES

 CASE =                

             REACTANT                       MOLES         ENERGY      TEMP
                                                         KJ/KG-MOL      K
 FUEL        C6H6                         1.0000000     83032.119    300.000
 OXIDANT     O2                           7.5000000        54.358    300.000

 O/F=    0.83038  %FUEL= 54.633494  R,EQ.RATIO= 3.700000  PHI,EQ.RATIO= 3.700000

 THERMODYNAMIC PROPERTIES

 P, BAR            1.0000
 T, K             2216.21
 RHO, KG/CU M    1.0978-1
 H, KJ/KG          581.52
 U, KJ/KG         -329.38
 G, KJ/KG        -26828.7
 S, KJ/(KG)(K)    12.3681

 M, (1/n)          20.229
 MW, MOL WT        15.892
 (dLV/dLP)t      -1.00107
 (dLV/dLT)p        1.0250
 Cp, KJ/(KG)(K)    2.4387
 GAMMAs            1.2136
 SON VEL,M/SEC     1051.4

 MOLE FRACTIONS

 *C              1.5960-9
 *CH             2.6865-9
 CH2             1.0444-7
 CH3             6.5618-6
 CH2OH           3.008-12
 CH3O            3.734-13
 CH4             3.6399-5
 CH3OH           2.463-12
 *CO             4.5060-1
 *CO2            2.6282-6
 COOH            2.144-12
 *C2             2.262-10
 C2H             3.2292-7
 C2H2,acetylene  9.2983-4
 C2H2,vinylidene 2.4405-7
 CH2CO,ketene    1.5506-7
 O(CH)2O         2.845-15
 C2H3,vinyl      6.3818-8
 CH3CO,acetyl    2.355-11
 C2H4            9.0279-7
 C2H4O,ethylen-o 6.782-16
 CH3CHO,ethanal  4.472-12
 C2H5            1.043-10
 C2H6            8.584-11
 C2O             9.7282-9
 *C3             2.6314-9
 C3H3,1-propynl  6.106-11
 C3H3,2-propynl  1.6998-7
 C3H4,allene     8.1730-9
 C3H4,propyne    1.9329-8
 C3H4,cyclo-     5.842-11
 C3H5,allyl      4.155-11
 C3H6,propylene  1.767-11
 C3H6,cyclo-     7.822-14
 C3H7,n-propyl   6.179-16
 C3H7,i-propyl   4.666-16
 C3H8            5.053-16
 C3O2            2.239-10
 *C4             4.491-13
 C4H2,butadiyne  1.0582-6
 C4H4,1,3-cyclo- 2.207-13
 C4H6,butadiene  1.049-12
 C4H6,1butyne    1.242-13
 C4H6,2butyne    8.362-14
 C4H6,cyclo-     2.840-15
 *C5             1.936-12
 C5H6,1,3cyclo-  2.715-14
 C6H2            1.2664-9
 C6H5,phenyl     8.426-15
 C6H6            8.939-14
 *H              3.1504-3
 HCO             4.0794-7
 HCCO            3.5599-9
 *H2             3.3086-1
 HCHO,formaldehy 7.7570-8
 HCOOH           2.253-12
 H2O             1.0289-5
 *O              9.213-11
 *OH             1.5625-8
 *O2             1.206-15
 C(gr)           2.1440-1

  * THERMODYNAMIC PROPERTIES FITTED TO 20000.K









         THERMODYNAMIC EQUILIBRIUM COMBUSTION PROPERTIES AT ASSIGNED

                                   PRESSURES

 CASE =                

             REACTANT                       MOLES         ENERGY      TEMP
                                                         KJ/KG-MOL      K
 FUEL        C6H6                         1.0000000     83032.119    300.000
 OXIDANT     O2                           7.5000000        54.358    300.000

 O/F=    0.80853  %FUEL= 55.293619  R,EQ.RATIO= 3.800000  PHI,EQ.RATIO= 3.800000

 THERMODYNAMIC PROPERTIES

 P, BAR            1.0000
 T, K             2189.41
 RHO, KG/CU M    1.1152-1
 H, KJ/KG          588.53
 U, KJ/KG         -308.21
 G, KJ/KG        -26382.2
 S, KJ/(KG)(K)    12.3187

 M, (1/n)          20.300
 MW, MOL WT        15.702
 (dLV/dLP)t      -1.00094
 (dLV/dLT)p        1.0220
 Cp, KJ/(KG)(K)    2.4165
 GAMMAs            1.2137
 SON VEL,M/SEC     1043.3

 MOLE FRACTIONS

 *C              9.767-10
 *CH             1.8004-9
 CH2             8.1243-8
 CH3             6.0625-6
 CH2OH           2.831-12
 CH3O            3.417-13
 CH4             3.9220-5
 CH3OH           2.647-12
 *CO             4.3874-1
 *CO2            2.8075-6
 COOH            2.052-12
 *C2             1.290-10
 C2H             2.2098-7
 C2H2,acetylene  8.0419-4
 C2H2,vinylidene 1.8757-7
 CH2CO,ketene    1.4748-7
 O(CH)2O         2.738-15
 C2H3,vinyl      5.3414-8
 CH3CO,acetyl    2.198-11
 C2H4            8.9775-7
 C2H4O,ethylen-o 6.579-16
 CH3CHO,ethanal  4.689-12
 C2H5            1.002-10
 C2H6            9.519-11
 C2O             7.2333-9
 *C3             1.5075-9
 C3H3,1-propynl  4.637-11
 C3H3,2-propynl  1.3880-7
 C3H4,allene     7.3988-9
 C3H4,propyne    1.7584-8
 C3H4,cyclo-     4.997-11
 C3H5,allyl      3.853-11
 C3H6,propylene  1.829-11
 C3H6,cyclo-     7.896-14
 C3H7,n-propyl   6.114-16
 C3H7,i-propyl   4.655-16
 C3H8            5.778-16
 C3O2            1.958-10
 *C4             2.244-13
 C4H2,butadiyne  7.8952-7
 C4H4,1,3-cyclo- 1.758-13
 C4H6,butadiene  1.010-12
 C4H6,1butyne    1.165-13
 C4H6,2butyne    7.968-14
 C4H6,cyclo-     2.676-15
 C4H8,1-butene   1.023-16
 *C5             9.551-13
 C5H6,1,3cyclo-  2.595-14
 C6H2            8.152-10
 C6H5,phenyl     6.995-15
 C6H6            8.865-14
 *H              2.6887-3
 HCO             3.6213-7
 HCCO            2.8847-9
 *H2             3.3120-1
 HCHO,formaldehy 7.6865-8
 HCOOH           2.415-12
 H2O             1.1111-5
 *O              6.987-11
 *OH             1.3837-8
 *O2             9.891-16
 C(gr)           2.2651-1

  * THERMODYNAMIC PROPERTIES FITTED TO 20000.K









         THERMODYNAMIC EQUILIBRIUM COMBUSTION PROPERTIES AT ASSIGNED

                                   PRESSURES

 CASE =                

             REACTANT                       MOLES         ENERGY      TEMP
                                                         KJ/KG-MOL      K
 FUEL        C6H6                         1.0000000     83032.119    300.000
 OXIDANT     O2                           7.5000000        54.358    300.000

 O/F=    0.78780  %FUEL= 55.934810  R,EQ.RATIO= 3.900000  PHI,EQ.RATIO= 3.900000

 THERMODYNAMIC PROPERTIES

 P, BAR            1.0000
 T, K             2163.36
 RHO, KG/CU M    1.1324-1
 H, KJ/KG          595.33
 U, KJ/KG         -287.74
 G, KJ/KG        -25949.9
 S, KJ/(KG)(K)    12.2704

 M, (1/n)          20.369
 MW, MOL WT        15.522
 (dLV/dLP)t      -1.00083
 (dLV/dLT)p        1.0194
 Cp, KJ/(KG)(K)    2.3979
 GAMMAs            1.2137
 SON VEL,M/SEC     1035.3

 MOLE FRACTIONS

 *C              5.993-10
 *CH             1.2087-9
 CH2             6.3249-8
 CH3             5.6000-6
 CH2OH           2.665-12
 CH3O            3.126-13
 CH4             4.2217-5
 CH3OH           2.841-12
 *CO             4.2748-1
 *CO2            3.0007-6
 COOH            1.965-12
 *C2             7.376-11
 C2H             1.5148-7
 C2H2,acetylene  6.9582-4
 C2H2,vinylidene 1.4428-7
 CH2CO,ketene    1.4029-7
 O(CH)2O         2.636-15
 C2H3,vinyl      4.4714-8
 CH3CO,acetyl    2.051-11
 C2H4            8.9201-7
 C2H4O,ethylen-o 6.379-16
 CH3CHO,ethanal  4.912-12
 C2H5            9.621-11
 C2H6            1.054-10
 C2O             5.3882-9
 *C3             8.658-10
 C3H3,1-propynl  3.524-11
 C3H3,2-propynl  1.1337-7
 C3H4,allene     6.6951-9
 C3H4,propyne    1.5988-8
 C3H4,cyclo-     4.274-11
 C3H5,allyl      3.571-11
 C3H6,propylene  1.889-11
 C3H6,cyclo-     7.960-14
 C3H7,n-propyl   6.038-16
 C3H7,i-propyl   4.637-16
 C3H8            6.588-16
 C3O2            1.715-10
 *C4             1.125-13
 C4H2,butadiyne  5.8961-7
 C4H4,1,3-cyclo- 1.400-13
 C4H6,butadiene  9.722-13
 C4H6,1butyne    1.091-13
 C4H6,2butyne    7.582-14
 C4H6,cyclo-     2.520-15
 C4H8,1-butene   1.090-16
 *C5             4.726-13
 C5H6,1,3cyclo-  2.478-14
 C6H2            5.255-10
 C6H5,phenyl     5.805-15
 C6H6            8.779-14
 *H              2.2969-3
 HCO             3.2172-7
 HCCO            2.3402-9
 *H2             3.3150-1
 HCHO,formaldehy 7.6168-8
 HCOOH           2.588-12
 H2O             1.1996-5
 *O              5.309-11
 *OH             1.2264-8
 *O2             8.128-16
 C(gr)           2.3797-1

  * THERMODYNAMIC PROPERTIES FITTED TO 20000.K









         THERMODYNAMIC EQUILIBRIUM COMBUSTION PROPERTIES AT ASSIGNED

                                   PRESSURES

 CASE =                

             REACTANT                       MOLES         ENERGY      TEMP
                                                         KJ/KG-MOL      K
 FUEL        C6H6                         1.0000000     83032.119    300.000
 OXIDANT     O2                           7.5000000        54.358    300.000

 O/F=    0.76810  %FUEL= 56.557868  R,EQ.RATIO= 4.000000  PHI,EQ.RATIO= 4.000000

 THERMODYNAMIC PROPERTIES

 P, BAR            1.0000
 T, K             2138.05
 RHO, KG/CU M    1.1496-1
 H, KJ/KG          601.94
 U, KJ/KG         -267.95
 G, KJ/KG        -25531.4
 S, KJ/(KG)(K)    12.2230

 M, (1/n)          20.436
 MW, MOL WT        15.351
 (dLV/dLP)t      -1.00074
 (dLV/dLT)p        1.0171
 Cp, KJ/(KG)(K)    2.3824
 GAMMAs            1.2135
 SON VEL,M/SEC     1027.4

 MOLE FRACTIONS

 *C              3.688-10
 *CH             8.133-10
 CH2             4.9295-8
 CH3             5.1724-6
 CH2OH           2.507-12
 CH3O            2.861-13
 CH4             4.5398-5
 CH3OH           3.048-12
 *CO             4.1678-1
 *CO2            3.2086-6
 COOH            1.883-12
 *C2             4.232-11
 C2H             1.0406-7
 C2H2,acetylene  6.0240-4
 C2H2,vinylidene 1.1111-7
 CH2CO,ketene    1.3349-7
 O(CH)2O         2.538-15
 C2H3,vinyl      3.7447-8
 CH3CO,acetyl    1.914-11
 C2H4            8.8567-7
 C2H4O,ethylen-o 6.183-16
 CH3CHO,ethanal  5.142-12
 C2H5            9.230-11
 C2H6            1.164-10
 C2O             4.0223-9
 *C3             4.988-10
 C3H3,1-propynl  2.680-11
 C3H3,2-propynl  9.2648-8
 C3H4,allene     6.0568-9
 C3H4,propyne    1.4533-8
 C3H4,cyclo-     3.656-11
 C3H5,allyl      3.307-11
 C3H6,propylene  1.949-11
 C3H6,cyclo-     8.014-14
 C3H7,n-propyl   5.954-16
 C3H7,i-propyl   4.611-16
 C3H8            7.494-16
 C3O2            1.504-10
 *C4             5.662-14
 C4H2,butadiyne  4.4088-7
 C4H4,1,3-cyclo- 1.116-13
 C4H6,butadiene  9.347-13
 C4H6,1butyne    1.020-13
 C4H6,2butyne    7.208-14
 C4H6,cyclo-     2.370-15
 C4H8,1-butene   1.157-16
 *C5             2.348-13
 C5H6,1,3cyclo-  2.363-14
 C6H2            3.395-10
 C6H5,phenyl     4.817-15
 C6H6            8.683-14
 *H              1.9642-3
 HCO             2.8606-7
 HCCO            1.9011-9
 *H2             3.3174-1
 HCHO,formaldehy 7.5481-8
 HCOOH           2.774-12
 H2O             1.2947-5
 *O              4.042-11
 *OH             1.0880-8
 *O2             6.693-16
 C(gr)           2.4884-1

  * THERMODYNAMIC PROPERTIES FITTED TO 20000.K



