
 *******************************************************************************

         NASA-GLENN CHEMICAL EQUILIBRIUM PROGRAM CEA2, MAY 21, 2004
                   BY  BONNIE MCBRIDE AND SANFORD GORDON
      REFS: NASA RP-1311, PART I, 1994 AND NASA RP-1311, PART II, 1996

 *******************************************************************************



 problem    phi,eq.ratio=3.7,3.8,3.9,4,
       hp   p,bar=1,  t,k=3800
 react
   fuel=C6H6 moles=1 t,k=300
   oxid=O2 moles=7.5 t,k=300
   oxid=N2 moles=28.2143 t,k=300
 output
      trace=1e-16 siunits short
 end




         THERMODYNAMIC EQUILIBRIUM COMBUSTION PROPERTIES AT ASSIGNED

                                   PRESSURES

 CASE =                

             REACTANT                       MOLES         ENERGY      TEMP
                                                         KJ/KG-MOL      K
 FUEL        C6H6                         1.0000000     83032.119    300.000
 OXIDANT     O2                           7.5000000        54.358    300.000
 OXIDANT     N2                          28.2143000        53.881    300.000

 O/F=    3.56512  %FUEL= 21.905220  R,EQ.RATIO= 3.700000  PHI,EQ.RATIO= 3.700000

 THERMODYNAMIC PROPERTIES

 P, BAR            1.0000
 T, K             1369.04
 RHO, KG/CU M    2.1355-1
 H, KJ/KG          234.31
 U, KJ/KG         -233.96
 G, KJ/KG        -13308.8
 S, KJ/(KG)(K)     9.8924

 M, (1/n)          24.308
 MW, MOL WT        21.460
 (dLV/dLP)t      -1.00067
 (dLV/dLT)p        1.0076
 Cp, KJ/(KG)(K)    1.5647
 GAMMAs            1.2842
 SON VEL,M/SEC      775.5

 MOLE FRACTIONS

 CH2             1.519-13
 CH3             2.6885-8
 CH2OH           2.966-14
 CH3O            9.959-16
 CH4             1.9046-4
 CH3OH           9.724-12
 *CN             2.330-12
 *CO             2.4341-1
 *CO2            1.5932-4
 COOH            2.294-13
 C2H             1.584-15
 C2H2,acetylene  2.9452-7
 C2H2,vinylidene 1.814-13
 CH2CO,ketene    5.6826-9
 O(CH)2O         1.911-16
 C2H3,vinyl      1.718-12
 CH3CN           2.8750-8
 CH3CO,acetyl    1.632-13
 C2H4            7.2616-8
 CH3CHO,ethanal  5.133-12
 CH3COOH         1.454-15
 C2H5            6.945-13
 C2H6            3.869-10
 C2H5OH          2.047-16
 OCCN            1.164-14
 C2N2            1.442-10
 C2O             6.459-15
 C3H3,2-propynl  1.305-12
 C3H4,allene     5.648-12
 C3H4,propyne    1.691-11
 C3H4,cyclo-     2.311-15
 C3H5,allyl      4.810-14
 C3H6,propylene  2.355-12
 C3H6,cyclo-     3.175-15
 C3H6O,acetone   1.098-16
 C3H8            2.394-15
 C3O2            5.271-13
 C4H2,butadiyne  1.804-13
 C4H6,butadiene  4.591-15
 C4H6,1butyne    1.120-16
 C4H6,2butyne    1.694-16
 C6H6            1.404-15
 *H              1.2547-6
 HCN             1.3074-4
 HCO             9.662-10
 HCCO            8.356-14
 HNC             1.1664-6
 HNCO            5.2571-8
 *H2             1.7984-1
 HCHO,formaldehy 2.3036-8
 HCOOH           3.832-11
 H2O             2.4061-4
 *N              9.867-16
 NCO             7.445-14
 *NH             7.608-14
 NH2             9.255-11
 NH3             5.6100-6
 *NO             3.525-13
 *N2             4.5883-1
 N2H2            8.465-16
 *O              1.895-16
 *OH             3.532-11
 C(gr)           1.1718-1

  * THERMODYNAMIC PROPERTIES FITTED TO 20000.K









         THERMODYNAMIC EQUILIBRIUM COMBUSTION PROPERTIES AT ASSIGNED

                                   PRESSURES

 CASE =                

             REACTANT                       MOLES         ENERGY      TEMP
                                                         KJ/KG-MOL      K
 FUEL        C6H6                         1.0000000     83032.119    300.000
 OXIDANT     O2                           7.5000000        54.358    300.000
 OXIDANT     N2                          28.2143000        53.881    300.000

 O/F=    3.47130  %FUEL= 22.364846  R,EQ.RATIO= 3.800000  PHI,EQ.RATIO= 3.800000

 THERMODYNAMIC PROPERTIES

 P, BAR            1.0000
 T, K             1362.65
 RHO, KG/CU M    2.1465-1
 H, KJ/KG          239.19
 U, KJ/KG         -226.70
 G, KJ/KG        -13229.0
 S, KJ/(KG)(K)     9.8838

 M, (1/n)          24.319
 MW, MOL WT        21.276
 (dLV/dLP)t      -1.00072
 (dLV/dLT)p        1.0082
 Cp, KJ/(KG)(K)    1.5745
 GAMMAs            1.2820
 SON VEL,M/SEC      772.8

 MOLE FRACTIONS

 CH2             1.313-13
 CH3             2.5998-8
 CH2OH           2.912-14
 CH3O            9.633-16
 CH4             2.0433-4
 CH3OH           1.043-11
 *CN             1.925-12
 *CO             2.3987-1
 *CO2            1.6722-4
 COOH            2.262-13
 C2H             1.258-15
 C2H2,acetylene  2.7190-7
 C2H2,vinylidene 1.553-13
 CH2CO,ketene    5.5855-9
 O(CH)2O         1.902-16
 C2H3,vinyl      1.562-12
 CH3CN           2.8670-8
 CH3CO,acetyl    1.596-13
 C2H4            7.3953-8
 CH3CHO,ethanal  5.426-12
 CH3COOH         1.623-15
 C2H5            6.965-13
 C2H6            4.268-10
 C2H5OH          2.277-16
 OCCN            1.001-14
 C2N2            1.250-10
 C2O             5.388-15
 C3H3,2-propynl  1.168-12
 C3H4,allene     5.426-12
 C3H4,propyne    1.629-11
 C3H4,cyclo-     2.144-15
 C3H5,allyl      4.723-14
 C3H6,propylene  2.488-12
 C3H6,cyclo-     3.307-15
 C3H6O,acetone   1.213-16
 C3H8            2.725-15
 C3O2            4.883-13
 C4H2,butadiyne  1.518-13
 C4H6,butadiene  4.655-15
 C4H6,1butyne    1.112-16
 C4H6,2butyne    1.700-16
 C6H6            1.445-15
 *H              1.1458-6
 HCN             1.2375-4
 HCO             9.044-10
 HCCO            7.391-14
 HNC             1.0760-6
 HNCO            5.2375-8
 *H2             1.8201-1
 HCHO,formaldehy 2.3234-8
 HCOOH           4.085-11
 H2O             2.5603-4
 *N              8.009-16
 NCO             6.609-14
 *NH             6.560-14
 NH2             8.660-11
 NH3             5.8561-6
 *NO             3.183-13
 *N2             4.5223-1
 N2H2            7.828-16
 *O              1.605-16
 *OH             3.306-11
 C(gr)           1.2513-1

  * THERMODYNAMIC PROPERTIES FITTED TO 20000.K









         THERMODYNAMIC EQUILIBRIUM COMBUSTION PROPERTIES AT ASSIGNED

                                   PRESSURES

 CASE =                

             REACTANT                       MOLES         ENERGY      TEMP
                                                         KJ/KG-MOL      K
 FUEL        C6H6                         1.0000000     83032.119    300.000
 OXIDANT     O2                           7.5000000        54.358    300.000
 OXIDANT     N2                          28.2143000        53.881    300.000

 O/F=    3.38230  %FUEL= 22.819093  R,EQ.RATIO= 3.900000  PHI,EQ.RATIO= 3.900000

 THERMODYNAMIC PROPERTIES

 P, BAR            1.0000
 T, K             1356.41
 RHO, KG/CU M    2.1573-1
 H, KJ/KG          244.01
 U, KJ/KG         -219.54
 G, KJ/KG        -13150.8
 S, KJ/(KG)(K)     9.8752

 M, (1/n)          24.330
 MW, MOL WT        21.097
 (dLV/dLP)t      -1.00077
 (dLV/dLT)p        1.0088
 Cp, KJ/(KG)(K)    1.5844
 GAMMAs            1.2800
 SON VEL,M/SEC      770.3

 MOLE FRACTIONS

 CH2             1.136-13
 CH3             2.5140-8
 CH2OH           2.858-14
 CH3O            9.317-16
 CH4             2.1883-4
 CH3OH           1.118-11
 *CN             1.594-12
 *CO             2.3642-1
 *CO2            1.7537-4
 COOH            2.229-13
 C2H             1.002-15
 C2H2,acetylene  2.5123-7
 C2H2,vinylidene 1.333-13
 CH2CO,ketene    5.4893-9
 O(CH)2O         1.892-16
 C2H3,vinyl      1.421-12
 CH3CN           2.8577-8
 CH3CO,acetyl    1.561-13
 C2H4            7.5242-8
 CH3CHO,ethanal  5.727-12
 CH3COOH         1.807-15
 C2H5            6.978-13
 C2H6            4.697-10
 C2H5OH          2.526-16
 OCCN            8.626-15
 C2N2            1.085-10
 C2O             4.506-15
 C3H3,2-propynl  1.046-12
 C3H4,allene     5.212-12
 C3H4,propyne    1.569-11
 C3H4,cyclo-     1.989-15
 C3H5,allyl      4.635-14
 C3H6,propylene  2.623-12
 C3H6,cyclo-     3.439-15
 C3H6O,acetone   1.338-16
 C3H8            3.091-15
 C3O2            4.529-13
 C4H2,butadiyne  1.280-13
 C4H6,butadiene  4.715-15
 C4H6,1butyne    1.104-16
 C4H6,2butyne    1.704-16
 C6H6            1.485-15
 *H              1.0475-6
 HCN             1.1722-4
 HCO             8.473-10
 HCCO            6.548-14
 HNC             9.9353-7
 HNCO            5.2172-8
 *H2             1.8412-1
 HCHO,formaldehy 2.3421-8
 HCOOH           4.349-11
 H2O             2.7210-4
 *N              6.521-16
 NCO             5.877-14
 *NH             5.667-14
 NH2             8.109-11
 NH3             6.1060-6
 *NO             2.878-13
 *N2             4.4581-1
 N2H2            7.244-16
 *O              1.363-16
 *OH             3.098-11
 C(gr)           1.3286-1

  * THERMODYNAMIC PROPERTIES FITTED TO 20000.K









         THERMODYNAMIC EQUILIBRIUM COMBUSTION PROPERTIES AT ASSIGNED

                                   PRESSURES

 CASE =                

             REACTANT                       MOLES         ENERGY      TEMP
                                                         KJ/KG-MOL      K
 FUEL        C6H6                         1.0000000     83032.119    300.000
 OXIDANT     O2                           7.5000000        54.358    300.000
 OXIDANT     N2                          28.2143000        53.881    300.000

 O/F=    3.29774  %FUEL= 23.268055  R,EQ.RATIO= 4.000000  PHI,EQ.RATIO= 4.000000

 THERMODYNAMIC PROPERTIES

 P, BAR            1.0000
 T, K             1350.32
 RHO, KG/CU M    2.1680-1
 H, KJ/KG          248.77
 U, KJ/KG         -212.49
 G, KJ/KG        -13074.4
 S, KJ/(KG)(K)     9.8666

 M, (1/n)          24.340
 MW, MOL WT        20.924
 (dLV/dLP)t      -1.00082
 (dLV/dLT)p        1.0094
 Cp, KJ/(KG)(K)    1.5944
 GAMMAs            1.2779
 SON VEL,M/SEC      767.8

 MOLE FRACTIONS

 CH2             9.854-14
 CH3             2.4310-8
 CH2OH           2.804-14
 CH3O            9.011-16
 CH4             2.3398-4
 CH3OH           1.195-11
 *CN             1.324-12
 *CO             2.3307-1
 *CO2            1.8379-4
 COOH            2.198-13
 C2H             8.005-16
 C2H2,acetylene  2.3232-7
 C2H2,vinylidene 1.146-13
 CH2CO,ketene    5.3943-9
 O(CH)2O         1.882-16
 C2H3,vinyl      1.294-12
 CH3CN           2.8470-8
 CH3CO,acetyl    1.527-13
 C2H4            7.6485-8
 CH3CHO,ethanal  6.036-12
 CH3COOH         2.007-15
 C2H5            6.985-13
 C2H6            5.156-10
 C2H5OH          2.796-16
 OCCN            7.450-15
 C2N2            9.442-11
 C2O             3.778-15
 C3H3,2-propynl  9.387-13
 C3H4,allene     5.006-12
 C3H4,propyne    1.511-11
 C3H4,cyclo-     1.847-15
 C3H5,allyl      4.547-14
 C3H6,propylene  2.761-12
 C3H6,cyclo-     3.571-15
 C3H6O,acetone   1.472-16
 C3H8            3.495-15
 C3O2            4.204-13
 C4H2,butadiyne  1.082-13
 C4H6,butadiene  4.771-15
 C4H6,1butyne    1.095-16
 C4H6,2butyne    1.706-16
 C6H6            1.524-15
 *H              9.5884-7
 HCN             1.1109-4
 HCO             7.943-10
 HCCO            5.811-14
 HNC             9.1832-7
 HNCO            5.1962-8
 *H2             1.8616-1
 HCHO,formaldehy 2.3600-8
 HCOOH           4.624-11
 H2O             2.8881-4
 *N              5.326-16
 NCO             5.235-14
 *NH             4.906-14
 NH2             7.597-11
 NH3             6.3595-6
 *NO             2.606-13
 *N2             4.3958-1
 N2H2            6.709-16
 *O              1.159-16
 *OH             2.904-11
 C(gr)           1.4036-1

  * THERMODYNAMIC PROPERTIES FITTED TO 20000.K



