
 *******************************************************************************

         NASA-GLENN CHEMICAL EQUILIBRIUM PROGRAM CEA2, MAY 21, 2004
                   BY  BONNIE MCBRIDE AND SANFORD GORDON
      REFS: NASA RP-1311, PART I, 1994 AND NASA RP-1311, PART II, 1996

 *******************************************************************************



 problem    phi,eq.ratio=2.1,2.2,2.3,2.4,2.5,2.6,2.7,2.8,2.9,3,3.1,3.2,3.3,3.4,3.
 5,3.6,
       hp   p,bar=1,  t,k=3800
 react
   fuel=C6H6 moles=1 t,k=300
   oxid=O2 moles=7.5 t,k=300
   oxid=N2 moles=28.2143 t,k=300
 output
      trace=1e-16 siunits short
 end




         THERMODYNAMIC EQUILIBRIUM COMBUSTION PROPERTIES AT ASSIGNED

                                   PRESSURES

 CASE =                

             REACTANT                       MOLES         ENERGY      TEMP
                                                         KJ/KG-MOL      K
 FUEL        C6H6                         1.0000000     83032.119    300.000
 OXIDANT     O2                           7.5000000        54.358    300.000
 OXIDANT     N2                          28.2143000        53.881    300.000

 O/F=    6.28141  %FUEL= 13.733613  R,EQ.RATIO= 2.100000  PHI,EQ.RATIO= 2.100000

 THERMODYNAMIC PROPERTIES

 P, BAR            1.0000
 T, K             1706.14
 RHO, KG/CU M    1.7870-1
 H, KJ/KG          147.60
 U, KJ/KG         -411.98
 G, KJ/KG        -16800.3
 S, KJ/(KG)(K)     9.9334

 M, (1/n)          25.351
 (dLV/dLP)t      -1.00001
 (dLV/dLT)p        1.0004
 Cp, KJ/(KG)(K)    1.4447
 GAMMAs            1.2940
 SON VEL,M/SEC      850.9

 MOLE FRACTIONS

 CH2             2.678-14
 CH3             4.592-11
 CH2OH           4.856-14
 CH3O            3.121-15
 CH4             4.6252-9
 CH3OH           4.189-13
 *CN             2.145-12
 *CO             2.4660-1
 *CO2            2.0829-2
 COOH            4.691-10
 C2H2,acetylene  1.267-12
 CH2CO,ketene    3.163-12
 O(CH)2O         1.154-16
 CH3CN           5.142-15
 CH3CO,acetyl    1.249-16
 C2H4            6.184-15
 CH3CHO,ethanal  1.657-16
 OCCN            1.394-15
 C2N2            6.719-15
 C2O             2.930-15
 C3O2            2.078-15
 *H              5.0298-5
 HCN             4.2892-7
 HCO             9.5275-9
 HCCO            3.547-15
 HNC             1.1340-8
 HNCO            3.6196-8
 HNO             3.581-12
 HNO2            2.379-15
 HO2             2.027-14
 *H2             1.0358-1
 HCHO,formaldehy 1.0934-8
 HCOOH           3.2840-9
 H2O             3.0110-2
 H2O2            1.126-13
 *N              4.859-12
 NCO             5.998-12
 *NH             3.236-11
 NH2             1.3905-9
 NH3             9.3162-7
 NH2OH           8.225-15
 *NO             3.5123-8
 NO2             1.482-15
 *N2             5.9883-1
 N2H2            2.059-14
 N2O             1.792-12
 N3H             1.174-16
 *O              2.965-10
 *OH             8.8626-7
 *O2             3.867-11

  * THERMODYNAMIC PROPERTIES FITTED TO 20000.K









         THERMODYNAMIC EQUILIBRIUM COMBUSTION PROPERTIES AT ASSIGNED

                                   PRESSURES

 CASE =                

             REACTANT                       MOLES         ENERGY      TEMP
                                                         KJ/KG-MOL      K
 FUEL        C6H6                         1.0000000     83032.119    300.000
 OXIDANT     O2                           7.5000000        54.358    300.000
 OXIDANT     N2                          28.2143000        53.881    300.000

 O/F=    5.99589  %FUEL= 14.294113  R,EQ.RATIO= 2.200000  PHI,EQ.RATIO= 2.200000

 THERMODYNAMIC PROPERTIES

 P, BAR            1.0000
 T, K             1643.03
 RHO, KG/CU M    1.8328-1
 H, KJ/KG          153.55
 U, KJ/KG         -392.05
 G, KJ/KG        -16207.1
 S, KJ/(KG)(K)     9.9576

 M, (1/n)          25.038
 (dLV/dLP)t      -1.00001
 (dLV/dLT)p        1.0002
 Cp, KJ/(KG)(K)    1.4417
 GAMMAs            1.2994
 SON VEL,M/SEC      842.0

 MOLE FRACTIONS

 CH2             2.450-14
 CH3             8.668-11
 CH2OH           4.756-14
 CH3O            2.754-15
 CH4             1.6929-8
 CH3OH           7.238-13
 *CN             1.514-12
 *CO             2.5940-1
 *CO2            1.5511-2
 COOH            2.278-10
 C2H2,acetylene  4.136-12
 CH2CO,ketene    7.321-12
 O(CH)2O         1.357-16
 CH3CN           2.761-14
 CH3CO,acetyl    2.750-16
 C2H4            3.730-14
 CH3CHO,ethanal  5.988-16
 OCCN            1.394-15
 C2N2            1.510-14
 C2O             2.377-15
 C3O2            3.641-15
 *H              2.8827-5
 HCN             7.2962-7
 HCO             7.0343-9
 HCCO            4.171-15
 HNC             1.6286-8
 HNCO            4.0484-8
 HNO             9.500-13
 HNO2            3.379-16
 HO2             2.310-15
 *H2             1.1546-1
 HCHO,formaldehy 1.2965-8
 HCOOH           2.6117-9
 H2O             2.1977-2
 H2O2            2.031-14
 *N              1.315-12
 NCO             3.185-12
 *NH             1.287-11
 NH2             9.334-10
 NH3             1.2646-6
 NH2OH           3.674-15
 *NO             9.0178-9
 NO2             1.473-16
 *N2             5.8761-1
 N2H2            1.279-14
 N2O             4.615-13
 *O              4.941-11
 *OH             2.8232-7
 *O2             4.264-12

  * THERMODYNAMIC PROPERTIES FITTED TO 20000.K









         THERMODYNAMIC EQUILIBRIUM COMBUSTION PROPERTIES AT ASSIGNED

                                   PRESSURES

 CASE =                

             REACTANT                       MOLES         ENERGY      TEMP
                                                         KJ/KG-MOL      K
 FUEL        C6H6                         1.0000000     83032.119    300.000
 OXIDANT     O2                           7.5000000        54.358    300.000
 OXIDANT     N2                          28.2143000        53.881    300.000

 O/F=    5.73520  %FUEL= 14.847377  R,EQ.RATIO= 2.300000  PHI,EQ.RATIO= 2.300000

 THERMODYNAMIC PROPERTIES

 P, BAR            1.0000
 T, K             1580.98
 RHO, KG/CU M    1.8819-1
 H, KJ/KG          159.42
 U, KJ/KG         -371.96
 G, KJ/KG        -15614.4
 S, KJ/(KG)(K)     9.9772

 M, (1/n)          24.738
 (dLV/dLP)t      -1.00001
 (dLV/dLT)p        1.0001
 Cp, KJ/(KG)(K)    1.4379
 GAMMAs            1.3052
 SON VEL,M/SEC      832.8

 MOLE FRACTIONS

 CH2             2.358-14
 CH3             1.781-10
 CH2OH           4.479-14
 CH3O            2.325-15
 CH4             6.9578-8
 CH3OH           1.233-12
 *CN             1.131-12
 *CO             2.7175-1
 *CO2            1.0369-2
 COOH            9.576-11
 C2H2,acetylene  1.659-11
 CH2CO,ketene    1.875-11
 O(CH)2O         1.559-16
 C2H3,vinyl      1.605-16
 CH3CN           1.861-13
 CH3CO,acetyl    6.616-16
 C2H4            2.812-13
 CH3CHO,ethanal  2.412-15
 C2H6            1.740-16
 OCCN            1.498-15
 C2N2            4.172-14
 C2O             2.045-15
 C3O2            7.048-15
 *H              1.5818-5
 HCN             1.3719-6
 HCO             5.0107-9
 HCCO            5.263-15
 HNC             2.5588-8
 HNCO            4.4868-8
 HNO             2.119-13
 HO2             1.931-16
 *H2             1.2689-1
 HCHO,formaldehy 1.5116-8
 HCOOH           1.8357-9
 H2O             1.4165-2
 H2O2            2.734-15
 *N              3.293-13
 NCO             1.619-12
 *NH             4.795-12
 NH2             5.994-10
 NH3             1.6964-6
 NH2OH           1.396-15
 *NO             1.9615-9
 *N2             5.7681-1
 N2H2            7.581-15
 N2O             1.009-13
 *O              6.793-12
 *OH             7.6316-8
 *O2             3.477-13

  * THERMODYNAMIC PROPERTIES FITTED TO 20000.K









         THERMODYNAMIC EQUILIBRIUM COMBUSTION PROPERTIES AT ASSIGNED

                                   PRESSURES

 CASE =                

             REACTANT                       MOLES         ENERGY      TEMP
                                                         KJ/KG-MOL      K
 FUEL        C6H6                         1.0000000     83032.119    300.000
 OXIDANT     O2                           7.5000000        54.358    300.000
 OXIDANT     N2                          28.2143000        53.881    300.000

 O/F=    5.49623  %FUEL= 15.393544  R,EQ.RATIO= 2.400000  PHI,EQ.RATIO= 2.400000

 THERMODYNAMIC PROPERTIES

 P, BAR            1.0000
 T, K             1519.86
 RHO, KG/CU M    1.9346-1
 H, KJ/KG          165.21
 U, KJ/KG         -351.68
 G, KJ/KG        -15020.6
 S, KJ/(KG)(K)     9.9916

 M, (1/n)          24.448
 (dLV/dLP)t      -1.00001
 (dLV/dLT)p        1.0001
 Cp, KJ/(KG)(K)    1.4328
 GAMMAs            1.3113
 SON VEL,M/SEC      823.3

 MOLE FRACTIONS

 CH2             2.828-14
 CH3             4.746-10
 CH2OH           4.064-14
 CH3O            1.881-15
 CH4             3.8510-7
 CH3OH           2.084-12
 *CN             1.056-12
 *CO             2.8382-1
 *CO2            5.2473-3
 COOH            2.930-11
 C2H2,acetylene  1.160-10
 C2H2,vinylidene 3.484-16
 CH2CO,ketene    6.350-11
 O(CH)2O         1.757-16
 C2H3,vinyl      9.640-16
 CH3CN           2.244-12
 CH3CO,acetyl    2.079-15
 C2H4            3.781-12
 CH3CHO,ethanal  1.300-14
 CH3COOH         1.258-16
 C2H6            3.924-15
 OCCN            2.051-15
 C2N2            2.002-13
 C2O             2.206-15
 C3O2            1.796-14
 *H              8.2777-6
 HCN             3.3941-6
 HCO             3.4393-9
 HCCO            8.460-15
 HNC             5.2273-8
 HNCO            4.9386-8
 HNO             3.323-14
 *H2             1.3773-1
 HCHO,formaldehy 1.7381-8
 HCOOH           9.636-10
 H2O             6.8012-3
 H2O2            1.936-16
 *N              7.546-14
 NCO             7.840-13
 *NH             1.661-12
 NH2             3.674-10
 NH3             2.2580-6
 NH2OH           3.795-16
 *NO             3.021-10
 *N2             5.6639-1
 N2H2            4.280-15
 N2O             1.565-14
 *O              6.417-13
 *OH             1.4663-8
 *O2             1.470-14

  * THERMODYNAMIC PROPERTIES FITTED TO 20000.K









         THERMODYNAMIC EQUILIBRIUM COMBUSTION PROPERTIES AT ASSIGNED

                                   PRESSURES

 CASE =                

             REACTANT                       MOLES         ENERGY      TEMP
                                                         KJ/KG-MOL      K
 FUEL        C6H6                         1.0000000     83032.119    300.000
 OXIDANT     O2                           7.5000000        54.358    300.000
 OXIDANT     N2                          28.2143000        53.881    300.000

 O/F=    5.27638  %FUEL= 15.932750  R,EQ.RATIO= 2.500000  PHI,EQ.RATIO= 2.500000

 THERMODYNAMIC PROPERTIES

 P, BAR            1.0000
 T, K             1459.95
 RHO, KG/CU M    1.9916-1
 H, KJ/KG          170.94
 U, KJ/KG         -331.18
 G, KJ/KG        -14424.7
 S, KJ/(KG)(K)     9.9973

 M, (1/n)          24.175
 (dLV/dLP)t      -1.00023
 (dLV/dLT)p        1.0016
 Cp, KJ/(KG)(K)    1.4319
 GAMMAs            1.3171
 SON VEL,M/SEC      813.2

 MOLE FRACTIONS

 CH2             7.494-13
 CH3             2.9106-8
 CH2OH           3.550-14
 CH3O            1.456-15
 CH4             5.0896-5
 CH3OH           3.496-12
 *CN             2.185-11
 *CO             2.9550-1
 *CO2            1.1332-4
 COOH            3.676-13
 C2H             1.813-14
 C2H2,acetylene  4.4450-7
 C2H2,vinylidene 7.405-13
 CH2CO,ketene    5.0438-9
 O(CH)2O         1.944-16
 C2H3,vinyl      3.118-12
 CH3CN           1.5225-8
 CH3CO,acetyl    1.512-13
 C2H4            2.8512-8
 CH3CHO,ethanal  1.662-12
 CH3COOH         3.105-16
 C2H5            3.279-13
 C2H6            5.038-11
 OCCN            6.340-14
 C2N2            5.252-10
 C2O             5.293-14
 C3H3,2-propynl  2.140-12
 C3H4,allene     3.548-12
 C3H4,propyne    1.023-11
 C3H4,cyclo-     2.313-15
 C3H5,allyl      2.212-14
 C3H6,propylene  4.016-13
 C3H6,cyclo-     6.534-16
 C3H8            1.457-16
 C3O2            1.069-12
 C4H2,butadiyne  5.062-13
 C4H6,butadiene  9.935-16
 C4N2            5.501-16
 C6H6            1.356-16
 *H              4.1296-6
 HCN             1.9597-4
 HCO             2.2736-9
 HCCO            3.073-13
 HNC             2.4630-6
 HNCO            5.3974-8
 HNO             2.064-16
 *H2             1.4759-1
 HCHO,formaldehy 1.9701-8
 HCOOH           2.129-11
 H2O             1.3702-4
 *N              1.582-14
 NCO             3.618-13
 *NH             5.348-13
 NH2             2.148-10
 NH3             2.9805-6
 *NO             1.856-12
 *N2             5.5641-1
 N2H2            2.300-15
 *O              2.346-15
 *OH             1.128-10

  * THERMODYNAMIC PROPERTIES FITTED TO 20000.K









         THERMODYNAMIC EQUILIBRIUM COMBUSTION PROPERTIES AT ASSIGNED

                                   PRESSURES

 CASE =                

             REACTANT                       MOLES         ENERGY      TEMP
                                                         KJ/KG-MOL      K
 FUEL        C6H6                         1.0000000     83032.119    300.000
 OXIDANT     O2                           7.5000000        54.358    300.000
 OXIDANT     N2                          28.2143000        53.881    300.000

 O/F=    5.07344  %FUEL= 16.465126  R,EQ.RATIO= 2.600000  PHI,EQ.RATIO= 2.600000

 THERMODYNAMIC PROPERTIES

 P, BAR            1.0000
 T, K             1450.80
 RHO, KG/CU M    2.0050-1
 H, KJ/KG          176.59
 U, KJ/KG         -322.17
 G, KJ/KG        -14314.8
 S, KJ/(KG)(K)     9.9886

 M, (1/n)          24.185
 MW, MOL WT        23.907
 (dLV/dLP)t      -1.00028
 (dLV/dLT)p        1.0031
 Cp, KJ/(KG)(K)    1.4575
 GAMMAs            1.3107
 SON VEL,M/SEC      808.5

 MOLE FRACTIONS

 CH2             8.513-13
 CH3             3.8232-8
 CH2OH           3.507-14
 CH3O            1.411-15
 CH4             7.6436-5
 CH3OH           3.875-12
 *CN             2.330-11
 *CO             2.9045-1
 *CO2            8.8956-5
 COOH            2.674-13
 C2H             2.504-14
 C2H2,acetylene  7.4484-7
 C2H2,vinylidene 1.129-12
 CH2CO,ketene    6.7481-9
 O(CH)2O         1.949-16
 C2H3,vinyl      5.140-12
 CH3CN           2.8219-8
 CH3CO,acetyl    2.017-13
 C2H4            5.4425-8
 CH3CHO,ethanal  2.452-12
 CH3COOH         3.618-16
 C2H5            6.157-13
 C2H6            1.071-10
 OCCN            7.125-14
 C2N2            8.079-10
 C2O             5.720-14
 C3H3,2-propynl  4.696-12
 C3H4,allene     8.539-12
 C3H4,propyne    2.471-11
 C3H4,cyclo-     5.324-15
 C3H5,allyl      5.489-14
 C3H6,propylene  1.096-12
 C3H6,cyclo-     1.752-15
 C3H8            4.396-16
 C3O2            1.320-12
 C4H2,butadiyne  1.390-12
 C4H6,butadiene  3.495-15
 C4H6,1butyne    1.090-16
 C4H6,2butyne    1.465-16
 C4N2            1.388-15
 C6H6            8.948-16
 *H              3.6929-6
 HCN             2.4903-4
 HCO             2.1010-9
 HCCO            3.588-13
 HNC             3.0296-6
 HNCO            5.3975-8
 HNO             1.356-16
 *H2             1.5079-1
 HCHO,formaldehy 2.0066-8
 HCOOH           1.714-11
 H2O             1.1004-4
 *N              1.216-14
 NCO             3.118-13
 *NH             4.451-13
 NH2             1.989-10
 NH3             3.1781-6
 *NO             1.204-12
 *N2             5.4673-1
 N2H2            2.098-15
 *O              1.403-15
 *OH             7.680-11
 C(gr)           1.1498-2

  * THERMODYNAMIC PROPERTIES FITTED TO 20000.K









         THERMODYNAMIC EQUILIBRIUM COMBUSTION PROPERTIES AT ASSIGNED

                                   PRESSURES

 CASE =                

             REACTANT                       MOLES         ENERGY      TEMP
                                                         KJ/KG-MOL      K
 FUEL        C6H6                         1.0000000     83032.119    300.000
 OXIDANT     O2                           7.5000000        54.358    300.000
 OXIDANT     N2                          28.2143000        53.881    300.000

 O/F=    4.88554  %FUEL= 16.990802  R,EQ.RATIO= 2.700000  PHI,EQ.RATIO= 2.700000

 THERMODYNAMIC PROPERTIES

 P, BAR            1.0000
 T, K             1442.38
 RHO, KG/CU M    2.0177-1
 H, KJ/KG          182.16
 U, KJ/KG         -313.46
 G, KJ/KG        -14212.4
 S, KJ/(KG)(K)     9.9798

 M, (1/n)          24.197
 MW, MOL WT        23.646
 (dLV/dLP)t      -1.00031
 (dLV/dLT)p        1.0034
 Cp, KJ/(KG)(K)    1.4673
 GAMMAs            1.3080
 SON VEL,M/SEC      805.2

 MOLE FRACTIONS

 CH2             7.217-13
 CH3             3.7124-8
 CH2OH           3.468-14
 CH3O            1.371-15
 CH4             8.4135-5
 CH3OH           4.270-12
 *CN             1.860-11
 *CO             2.8545-1
 *CO2            9.4170-5
 COOH            2.639-13
 C2H             1.914-14
 C2H2,acetylene  6.8246-7
 C2H2,vinylidene 9.474-13
 CH2CO,ketene    6.6584-9
 O(CH)2O         1.952-16
 C2H3,vinyl      4.641-12
 CH3CN           2.8415-8
 CH3CO,acetyl    1.986-13
 C2H4            5.6362-8
 CH3CHO,ethanal  2.654-12
 CH3COOH         4.174-16
 C2H5            6.284-13
 C2H6            1.226-10
 OCCN            5.968-14
 C2N2            6.825-10
 C2O             4.621-14
 C3H3,2-propynl  4.164-12
 C3H4,allene     8.256-12
 C3H4,propyne    2.397-11
 C3H4,cyclo-     4.941-15
 C3H5,allyl      5.465-14
 C3H6,propylene  1.194-12
 C3H6,cyclo-     1.876-15
 C3H8            5.261-16
 C3O2            1.207-12
 C4H2,butadiyne  1.142-12
 C4H6,butadiene  3.626-15
 C4H6,1butyne    1.104-16
 C4H6,2butyne    1.502-16
 C4N2            1.053-15
 C6H6            9.447-16
 *H              3.3273-6
 HCN             2.3419-4
 HCO             1.9506-9
 HCCO            3.117-13
 HNC             2.7640-6
 HNCO            5.3929-8
 HNO             1.218-16
 *H2             1.5389-1
 HCHO,formaldehy 2.0408-8
 HCOOH           1.861-11
 H2O             1.1919-4
 *N              9.509-15
 NCO             2.710-13
 *NH             3.751-13
 NH2             1.852-10
 NH3             3.3768-6
 *NO             1.068-12
 *N2             5.3737-1
 N2H2            1.926-15
 *O              1.153-15
 *OH             7.130-11
 C(gr)           2.2751-2

  * THERMODYNAMIC PROPERTIES FITTED TO 20000.K









         THERMODYNAMIC EQUILIBRIUM COMBUSTION PROPERTIES AT ASSIGNED

                                   PRESSURES

 CASE =                

             REACTANT                       MOLES         ENERGY      TEMP
                                                         KJ/KG-MOL      K
 FUEL        C6H6                         1.0000000     83032.119    300.000
 OXIDANT     O2                           7.5000000        54.358    300.000
 OXIDANT     N2                          28.2143000        53.881    300.000

 O/F=    4.71105  %FUEL= 17.509903  R,EQ.RATIO= 2.800000  PHI,EQ.RATIO= 2.800000

 THERMODYNAMIC PROPERTIES

 P, BAR            1.0000
 T, K             1434.17
 RHO, KG/CU M    2.0301-1
 H, KJ/KG          187.67
 U, KJ/KG         -304.90
 G, KJ/KG        -14112.5
 S, KJ/(KG)(K)     9.9710

 M, (1/n)          24.208
 MW, MOL WT        23.394
 (dLV/dLP)t      -1.00034
 (dLV/dLT)p        1.0037
 Cp, KJ/(KG)(K)    1.4770
 GAMMAs            1.3054
 SON VEL,M/SEC      801.9

 MOLE FRACTIONS

 CH2             6.127-13
 CH3             3.6020-8
 CH2OH           3.425-14
 CH3O            1.330-15
 CH4             9.2325-5
 CH3OH           4.689-12
 *CN             1.490-11
 *CO             2.8061-1
 *CO2            9.9608-5
 COOH            2.604-13
 C2H             1.469-14
 C2H2,acetylene  6.2561-7
 C2H2,vinylidene 7.963-13
 CH2CO,ketene    6.5657-9
 O(CH)2O         1.953-16
 C2H3,vinyl      4.192-12
 CH3CN           2.8574-8
 CH3CO,acetyl    1.953-13
 C2H4            5.8241-8
 CH3CHO,ethanal  2.865-12
 CH3COOH         4.797-16
 C2H5            6.397-13
 C2H6            1.399-10
 OCCN            5.012-14
 C2N2            5.781-10
 C2O             3.745-14
 C3H3,2-propynl  3.695-12
 C3H4,allene     7.974-12
 C3H4,propyne    2.323-11
 C3H4,cyclo-     4.582-15
 C3H5,allyl      5.430-14
 C3H6,propylene  1.295-12
 C3H6,cyclo-     2.002-15
 C3H8            6.257-16
 C3O2            1.104-12
 C4H2,butadiyne  9.403-13
 C4H6,butadiene  3.751-15
 C4H6,1butyne    1.115-16
 C4H6,2butyne    1.534-16
 C4N2            8.024-16
 C6H6            9.941-16
 *H              3.0016-6
 HCN             2.2035-4
 HCO             1.8122-9
 HCCO            2.712-13
 HNC             2.5241-6
 HNCO            5.3861-8
 HNO             1.095-16
 *H2             1.5689-1
 HCHO,formaldehy 2.0733-8
 HCOOH           2.016-11
 H2O             1.2884-4
 *N              7.464-15
 NCO             2.361-13
 *NH             3.167-13
 NH2             1.724-10
 NH3             3.5802-6
 *NO             9.485-13
 *N2             5.2832-1
 N2H2            1.769-15
 *O              9.506-16
 *OH             6.623-11
 C(gr)           3.3624-2

  * THERMODYNAMIC PROPERTIES FITTED TO 20000.K









         THERMODYNAMIC EQUILIBRIUM COMBUSTION PROPERTIES AT ASSIGNED

                                   PRESSURES

 CASE =                

             REACTANT                       MOLES         ENERGY      TEMP
                                                         KJ/KG-MOL      K
 FUEL        C6H6                         1.0000000     83032.119    300.000
 OXIDANT     O2                           7.5000000        54.358    300.000
 OXIDANT     N2                          28.2143000        53.881    300.000

 O/F=    4.54860  %FUEL= 18.022552  R,EQ.RATIO= 2.900000  PHI,EQ.RATIO= 2.900000

 THERMODYNAMIC PROPERTIES

 P, BAR            1.0000
 T, K             1426.18
 RHO, KG/CU M    2.0425-1
 H, KJ/KG          193.11
 U, KJ/KG         -296.49
 G, KJ/KG        -14014.8
 S, KJ/(KG)(K)     9.9622

 M, (1/n)          24.220
 MW, MOL WT        23.151
 (dLV/dLP)t      -1.00036
 (dLV/dLT)p        1.0040
 Cp, KJ/(KG)(K)    1.4867
 GAMMAs            1.3028
 SON VEL,M/SEC      798.7

 MOLE FRACTIONS

 CH2             5.211-13
 CH3             3.4924-8
 CH2OH           3.380-14
 CH3O            1.290-15
 CH4             1.0102-4
 CH3OH           5.135-12
 *CN             1.197-11
 *CO             2.7594-1
 *CO2            1.0527-4
 COOH            2.569-13
 C2H             1.131-14
 C2H2,acetylene  5.7381-7
 C2H2,vinylidene 6.706-13
 CH2CO,ketene    6.4706-9
 O(CH)2O         1.953-16
 C2H3,vinyl      3.787-12
 CH3CN           2.8698-8
 CH3CO,acetyl    1.919-13
 C2H4            6.0060-8
 CH3CHO,ethanal  3.083-12
 CH3COOH         5.494-16
 C2H5            6.499-13
 C2H6            1.588-10
 OCCN            4.220-14
 C2N2            4.908-10
 C2O             3.045-14
 C3H3,2-propynl  3.280-12
 C3H4,allene     7.693-12
 C3H4,propyne    2.248-11
 C3H4,cyclo-     4.247-15
 C3H5,allyl      5.385-14
 C3H6,propylene  1.399-12
 C3H6,cyclo-     2.129-15
 C3H8            7.400-16
 C3O2            1.012-12
 C4H2,butadiyne  7.760-13
 C4H6,butadiene  3.869-15
 C4H6,1butyne    1.124-16
 C4H6,2butyne    1.564-16
 C4N2            6.138-16
 C6H6            1.043-15
 *H              2.7111-6
 HCN             2.0744-4
 HCO             1.6848-9
 HCCO            2.364-13
 HNC             2.3073-6
 HNCO            5.3774-8
 *H2             1.5979-1
 HCHO,formaldehy 2.1043-8
 HCOOH           2.180-11
 H2O             1.3901-4
 *N              5.880-15
 NCO             2.061-13
 *NH             2.681-13
 NH2             1.606-10
 NH3             3.7882-6
 *NO             8.441-13
 *N2             5.1957-1
 N2H2            1.626-15
 *O              7.861-16
 *OH             6.158-11
 C(gr)           4.4138-2

  * THERMODYNAMIC PROPERTIES FITTED TO 20000.K









         THERMODYNAMIC EQUILIBRIUM COMBUSTION PROPERTIES AT ASSIGNED

                                   PRESSURES

 CASE =                

             REACTANT                       MOLES         ENERGY      TEMP
                                                         KJ/KG-MOL      K
 FUEL        C6H6                         1.0000000     83032.119    300.000
 OXIDANT     O2                           7.5000000        54.358    300.000
 OXIDANT     N2                          28.2143000        53.881    300.000

 O/F=    4.39698  %FUEL= 18.528868  R,EQ.RATIO= 3.000000  PHI,EQ.RATIO= 3.000000

 THERMODYNAMIC PROPERTIES

 P, BAR            1.0000
 T, K             1418.40
 RHO, KG/CU M    2.0546-1
 H, KJ/KG          198.48
 U, KJ/KG         -288.22
 G, KJ/KG        -13919.4
 S, KJ/(KG)(K)     9.9534

 M, (1/n)          24.231
 MW, MOL WT        22.915
 (dLV/dLP)t      -1.00040
 (dLV/dLT)p        1.0044
 Cp, KJ/(KG)(K)    1.4964
 GAMMAs            1.3003
 SON VEL,M/SEC      795.5

 MOLE FRACTIONS

 CH2             4.440-13
 CH3             3.3842-8
 CH2OH           3.333-14
 CH3O            1.251-15
 CH4             1.1024-4
 CH3OH           5.608-12
 *CN             9.654-12
 *CO             2.7141-1
 *CO2            1.1117-4
 COOH            2.534-13
 C2H             8.743-15
 C2H2,acetylene  5.2661-7
 C2H2,vinylidene 5.657-13
 CH2CO,ketene    6.3738-9
 O(CH)2O         1.951-16
 C2H3,vinyl      3.423-12
 CH3CN           2.8790-8
 CH3CO,acetyl    1.884-13
 C2H4            6.1822-8
 CH3CHO,ethanal  3.311-12
 CH3COOH         6.270-16
 C2H5            6.589-13
 C2H6            1.796-10
 OCCN            3.563-14
 C2N2            4.178-10
 C2O             2.483-14
 C3H3,2-propynl  2.914-12
 C3H4,allene     7.416-12
 C3H4,propyne    2.174-11
 C3H4,cyclo-     3.936-15
 C3H5,allyl      5.332-14
 C3H6,propylene  1.508-12
 C3H6,cyclo-     2.257-15
 C3H8            8.705-16
 C3O2            9.292-13
 C4H2,butadiyne  6.417-13
 C4H6,butadiene  3.981-15
 C4H6,1butyne    1.130-16
 C4H6,2butyne    1.590-16
 C4N2            4.714-16
 C6H6            1.091-15
 *H              2.4516-6
 HCN             1.9540-4
 HCO             1.5676-9
 HCCO            2.063-13
 HNC             2.1113-6
 HNCO            5.3670-8
 *H2             1.6259-1
 HCHO,formaldehy 2.1338-8
 HCOOH           2.352-11
 H2O             1.4971-4
 *N              4.649-15
 NCO             1.802-13
 *NH             2.273-13
 NH2             1.497-10
 NH3             4.0009-6
 *NO             7.525-13
 *N2             5.1111-1
 N2H2            1.495-15
 *O              6.518-16
 *OH             5.729-11
 C(gr)           5.4309-2

  * THERMODYNAMIC PROPERTIES FITTED TO 20000.K









         THERMODYNAMIC EQUILIBRIUM COMBUSTION PROPERTIES AT ASSIGNED

                                   PRESSURES

 CASE =                

             REACTANT                       MOLES         ENERGY      TEMP
                                                         KJ/KG-MOL      K
 FUEL        C6H6                         1.0000000     83032.119    300.000
 OXIDANT     O2                           7.5000000        54.358    300.000
 OXIDANT     N2                          28.2143000        53.881    300.000

 O/F=    4.25515  %FUEL= 19.028969  R,EQ.RATIO= 3.100000  PHI,EQ.RATIO= 3.100000

 THERMODYNAMIC PROPERTIES

 P, BAR            1.0000
 T, K             1410.81
 RHO, KG/CU M    2.0667-1
 H, KJ/KG          203.79
 U, KJ/KG         -280.08
 G, KJ/KG        -13826.2
 S, KJ/(KG)(K)     9.9447

 M, (1/n)          24.242
 MW, MOL WT        22.687
 (dLV/dLP)t      -1.00043
 (dLV/dLT)p        1.0048
 Cp, KJ/(KG)(K)    1.5062
 GAMMAs            1.2978
 SON VEL,M/SEC      792.4

 MOLE FRACTIONS

 CH2             3.789-13
 CH3             3.2777-8
 CH2OH           3.283-14
 CH3O            1.212-15
 CH4             1.1999-4
 CH3OH           6.108-12
 *CN             7.808-12
 *CO             2.6703-1
 *CO2            1.1731-4
 COOH            2.499-13
 C2H             6.781-15
 C2H2,acetylene  4.8361-7
 C2H2,vinylidene 4.782-13
 CH2CO,ketene    6.2758-9
 O(CH)2O         1.949-16
 C2H3,vinyl      3.096-12
 CH3CN           2.8854-8
 CH3CO,acetyl    1.849-13
 C2H4            6.3527-8
 CH3CHO,ethanal  3.546-12
 CH3COOH         7.132-16
 C2H5            6.667-13
 C2H6            2.024-10
 C2H5OH          1.014-16
 OCCN            3.015-14
 C2N2            3.564-10
 C2O             2.031-14
 C3H3,2-propynl  2.591-12
 C3H4,allene     7.143-12
 C3H4,propyne    2.101-11
 C3H4,cyclo-     3.647-15
 C3H5,allyl      5.271-14
 C3H6,propylene  1.619-12
 C3H6,cyclo-     2.386-15
 C3H8            1.019-15
 C3O2            8.539-13
 C4H2,butadiyne  5.318-13
 C4H6,butadiene  4.086-15
 C4H6,1butyne    1.134-16
 C4H6,2butyne    1.613-16
 C4N2            3.634-16
 C6H6            1.138-15
 *H              2.2197-6
 HCN             1.8416-4
 HCO             1.4595-9
 HCCO            1.805-13
 HNC             1.9338-6
 HNCO            5.3549-8
 *H2             1.6530-1
 HCHO,formaldehy 2.1618-8
 HCOOH           2.534-11
 H2O             1.6096-4
 *N              3.688-15
 NCO             1.580-13
 *NH             1.932-13
 NH2             1.395-10
 NH3             4.2180-6
 *NO             6.720-13
 *N2             5.0292-1
 N2H2            1.375-15
 *O              5.421-16
 *OH             5.334-11
 C(gr)           6.4153-2

  * THERMODYNAMIC PROPERTIES FITTED TO 20000.K









         THERMODYNAMIC EQUILIBRIUM COMBUSTION PROPERTIES AT ASSIGNED

                                   PRESSURES

 CASE =                

             REACTANT                       MOLES         ENERGY      TEMP
                                                         KJ/KG-MOL      K
 FUEL        C6H6                         1.0000000     83032.119    300.000
 OXIDANT     O2                           7.5000000        54.358    300.000
 OXIDANT     N2                          28.2143000        53.881    300.000

 O/F=    4.12217  %FUEL= 19.522967  R,EQ.RATIO= 3.200000  PHI,EQ.RATIO= 3.200000

 THERMODYNAMIC PROPERTIES

 P, BAR            1.0000
 T, K             1403.41
 RHO, KG/CU M    2.0785-1
 H, KJ/KG          209.03
 U, KJ/KG         -272.08
 G, KJ/KG        -13735.1
 S, KJ/(KG)(K)     9.9359

 M, (1/n)          24.253
 MW, MOL WT        22.466
 (dLV/dLP)t      -1.00046
 (dLV/dLT)p        1.0052
 Cp, KJ/(KG)(K)    1.5159
 GAMMAs            1.2954
 SON VEL,M/SEC      789.5

 MOLE FRACTIONS

 CH2             3.239-13
 CH3             3.1732-8
 CH2OH           3.233-14
 CH3O            1.174-15
 CH4             1.3028-4
 CH3OH           6.636-12
 *CN             6.335-12
 *CO             2.6279-1
 *CO2            1.2369-4
 COOH            2.464-13
 C2H             5.277-15
 C2H2,acetylene  4.4441-7
 C2H2,vinylidene 4.049-13
 CH2CO,ketene    6.1770-9
 O(CH)2O         1.945-16
 C2H3,vinyl      2.802-12
 CH3CN           2.8890-8
 CH3CO,acetyl    1.813-13
 C2H4            6.5176-8
 CH3CHO,ethanal  3.790-12
 CH3COOH         8.088-16
 C2H5            6.736-13
 C2H6            2.272-10
 C2H5OH          1.149-16
 OCCN            2.558-14
 C2N2            3.048-10
 C2O             1.666-14
 C3H3,2-propynl  2.305-12
 C3H4,allene     6.876-12
 C3H4,propyne    2.028-11
 C3H4,cyclo-     3.379-15
 C3H5,allyl      5.205-14
 C3H6,propylene  1.734-12
 C3H6,cyclo-     2.517-15
 C3H8            1.187-15
 C3O2            7.856-13
 C4H2,butadiyne  4.417-13
 C4H6,butadiene  4.185-15
 C4H6,1butyne    1.136-16
 C4H6,2butyne    1.633-16
 C4N2            2.812-16
 C6H6            1.185-15
 *H              2.0123-6
 HCN             1.7368-4
 HCO             1.3600-9
 HCCO            1.581-13
 HNC             1.7731-6
 HNCO            5.3415-8
 *H2             1.6792-1
 HCHO,formaldehy 2.1885-8
 HCOOH           2.725-11
 H2O             1.7276-4
 *N              2.936-15
 NCO             1.387-13
 *NH             1.646-13
 NH2             1.301-10
 NH3             4.4395-6
 *NO             6.011-13
 *N2             4.9499-1
 N2H2            1.266-15
 *O              4.520-16
 *OH             4.970-11
 C(gr)           7.3688-2

  * THERMODYNAMIC PROPERTIES FITTED TO 20000.K









         THERMODYNAMIC EQUILIBRIUM COMBUSTION PROPERTIES AT ASSIGNED

                                   PRESSURES

 CASE =                

             REACTANT                       MOLES         ENERGY      TEMP
                                                         KJ/KG-MOL      K
 FUEL        C6H6                         1.0000000     83032.119    300.000
 OXIDANT     O2                           7.5000000        54.358    300.000
 OXIDANT     N2                          28.2143000        53.881    300.000

 O/F=    3.99726  %FUEL= 20.010974  R,EQ.RATIO= 3.300000  PHI,EQ.RATIO= 3.300000

 THERMODYNAMIC PROPERTIES

 P, BAR            1.0000
 T, K             1396.19
 RHO, KG/CU M    2.0902-1
 H, KJ/KG          214.21
 U, KJ/KG         -264.21
 G, KJ/KG        -13646.0
 S, KJ/(KG)(K)     9.9272

 M, (1/n)          24.264
 MW, MOL WT        22.252
 (dLV/dLP)t      -1.00050
 (dLV/dLT)p        1.0056
 Cp, KJ/(KG)(K)    1.5256
 GAMMAs            1.2931
 SON VEL,M/SEC      786.5

 MOLE FRACTIONS

 CH2             2.774-13
 CH3             3.0711-8
 CH2OH           3.180-14
 CH3O            1.136-15
 CH4             1.4114-4
 CH3OH           7.193-12
 *CN             5.156-12
 *CO             2.5867-1
 *CO2            1.3031-4
 COOH            2.429-13
 C2H             4.121-15
 C2H2,acetylene  4.0869-7
 C2H2,vinylidene 3.435-13
 CH2CO,ketene    6.0777-9
 O(CH)2O         1.940-16
 C2H3,vinyl      2.537-12
 CH3CN           2.8903-8
 CH3CO,acetyl    1.777-13
 C2H4            6.6769-8
 CH3CHO,ethanal  4.042-12
 CH3COOH         9.144-16
 C2H5            6.795-13
 C2H6            2.543-10
 C2H5OH          1.298-16
 OCCN            2.175-14
 C2N2            2.613-10
 C2O             1.371-14
 C3H3,2-propynl  2.053-12
 C3H4,allene     6.616-12
 C3H4,propyne    1.957-11
 C3H4,cyclo-     3.130-15
 C3H5,allyl      5.133-14
 C3H6,propylene  1.852-12
 C3H6,cyclo-     2.648-15
 C3H8            1.377-15
 C3O2            7.237-13
 C4H2,butadiyne  3.676-13
 C4H6,butadiene  4.277-15
 C4H6,1butyne    1.136-16
 C4H6,2butyne    1.650-16
 C4N2            2.185-16
 C6H6            1.230-15
 *H              1.8264-6
 HCN             1.6389-4
 HCO             1.2682-9
 HCCO            1.387-13
 HNC             1.6273-6
 HNCO            5.3267-8
 *H2             1.7046-1
 HCHO,formaldehy 2.2139-8
 HCOOH           2.926-11
 H2O             1.8514-4
 *N              2.346-15
 NCO             1.220-13
 *NH             1.404-13
 NH2             1.214-10
 NH3             4.6653-6
 *NO             5.386-13
 *N2             4.8731-1
 N2H2            1.167-15
 *O              3.779-16
 *OH             4.635-11
 C(gr)           8.2926-2

  * THERMODYNAMIC PROPERTIES FITTED TO 20000.K









         THERMODYNAMIC EQUILIBRIUM COMBUSTION PROPERTIES AT ASSIGNED

                                   PRESSURES

 CASE =                

             REACTANT                       MOLES         ENERGY      TEMP
                                                         KJ/KG-MOL      K
 FUEL        C6H6                         1.0000000     83032.119    300.000
 OXIDANT     O2                           7.5000000        54.358    300.000
 OXIDANT     N2                          28.2143000        53.881    300.000

 O/F=    3.87969  %FUEL= 20.493099  R,EQ.RATIO= 3.400000  PHI,EQ.RATIO= 3.400000

 THERMODYNAMIC PROPERTIES

 P, BAR            1.0000
 T, K             1389.15
 RHO, KG/CU M    2.1017-1
 H, KJ/KG          219.33
 U, KJ/KG         -256.47
 G, KJ/KG        -13558.9
 S, KJ/(KG)(K)     9.9184

 M, (1/n)          24.275
 MW, MOL WT        22.045
 (dLV/dLP)t      -1.00054
 (dLV/dLT)p        1.0061
 Cp, KJ/(KG)(K)    1.5353
 GAMMAs            1.2908
 SON VEL,M/SEC      783.7

 MOLE FRACTIONS

 CH2             2.380-13
 CH3             2.9714-8
 CH2OH           3.128-14
 CH3O            1.100-15
 CH4             1.5258-4
 CH3OH           7.780-12
 *CN             4.209-12
 *CO             2.5469-1
 *CO2            1.3718-4
 COOH            2.395-13
 C2H             3.229-15
 C2H2,acetylene  3.7611-7
 C2H2,vinylidene 2.920-13
 CH2CO,ketene    5.9784-9
 O(CH)2O         1.934-16
 C2H3,vinyl      2.299-12
 CH3CN           2.8893-8
 CH3CO,acetyl    1.740-13
 C2H4            6.8309-8
 CH3CHO,ethanal  4.303-12
 CH3COOH         1.031-15
 C2H5            6.845-13
 C2H6            2.836-10
 C2H5OH          1.461-16
 OCCN            1.854-14
 C2N2            2.245-10
 C2O             1.131-14
 C3H3,2-propynl  1.830-12
 C3H4,allene     6.362-12
 C3H4,propyne    1.888-11
 C3H4,cyclo-     2.901-15
 C3H5,allyl      5.057-14
 C3H6,propylene  1.973-12
 C3H6,cyclo-     2.779-15
 C3H8            1.590-15
 C3O2            6.674-13
 C4H2,butadiyne  3.067-13
 C4H6,butadiene  4.364-15
 C4H6,1butyne    1.134-16
 C4H6,2butyne    1.665-16
 C4N2            1.703-16
 C6H6            1.275-15
 *H              1.6598-6
 HCN             1.5474-4
 HCO             1.1834-9
 HCCO            1.219-13
 HNC             1.4951-6
 HNCO            5.3108-8
 *H2             1.7292-1
 HCHO,formaldehy 2.2380-8
 HCOOH           3.137-11
 H2O             1.9810-4
 *N              1.880-15
 NCO             1.076-13
 *NH             1.201-13
 NH2             1.134-10
 NH3             4.8953-6
 *NO             4.833-13
 *N2             4.7986-1
 N2H2            1.076-15
 *O              3.168-16
 *OH             4.325-11
 C(gr)           9.1883-2

  * THERMODYNAMIC PROPERTIES FITTED TO 20000.K









         THERMODYNAMIC EQUILIBRIUM COMBUSTION PROPERTIES AT ASSIGNED

                                   PRESSURES

 CASE =                

             REACTANT                       MOLES         ENERGY      TEMP
                                                         KJ/KG-MOL      K
 FUEL        C6H6                         1.0000000     83032.119    300.000
 OXIDANT     O2                           7.5000000        54.358    300.000
 OXIDANT     N2                          28.2143000        53.881    300.000

 O/F=    3.76884  %FUEL= 20.969446  R,EQ.RATIO= 3.500000  PHI,EQ.RATIO= 3.500000

 THERMODYNAMIC PROPERTIES

 P, BAR            1.0000
 T, K             1382.28
 RHO, KG/CU M    2.1131-1
 H, KJ/KG          224.38
 U, KJ/KG         -248.85
 G, KJ/KG        -13473.7
 S, KJ/(KG)(K)     9.9098

 M, (1/n)          24.286
 MW, MOL WT        21.844
 (dLV/dLP)t      -1.00058
 (dLV/dLT)p        1.0066
 Cp, KJ/(KG)(K)    1.5451
 GAMMAs            1.2885
 SON VEL,M/SEC      780.9

 MOLE FRACTIONS

 CH2             2.046-13
 CH3             2.8743-8
 CH2OH           3.074-14
 CH3O            1.064-15
 CH4             1.6460-4
 CH3OH           8.397-12
 *CN             3.446-12
 *CO             2.5082-1
 *CO2            1.4431-4
 COOH            2.361-13
 C2H             2.538-15
 C2H2,acetylene  3.4640-7
 C2H2,vinylidene 2.487-13
 CH2CO,ketene    5.8793-9
 O(CH)2O         1.927-16
 C2H3,vinyl      2.084-12
 CH3CN           2.8864-8
 CH3CO,acetyl    1.704-13
 C2H4            6.9796-8
 CH3CHO,ethanal  4.571-12
 CH3COOH         1.159-15
 C2H5            6.886-13
 C2H6            3.155-10
 C2H5OH          1.640-16
 OCCN            1.584-14
 C2N2            1.933-10
 C2O             9.358-15
 C3H3,2-propynl  1.633-12
 C3H4,allene     6.116-12
 C3H4,propyne    1.820-11
 C3H4,cyclo-     2.688-15
 C3H5,allyl      4.977-14
 C3H6,propylene  2.098-12
 C3H6,cyclo-     2.911-15
 C3H8            1.830-15
 C3O2            6.163-13
 C4H2,butadiyne  2.564-13
 C4H6,butadiene  4.445-15
 C4H6,1butyne    1.130-16
 C4H6,2butyne    1.677-16
 C4N2            1.333-16
 C6H6            1.319-15
 *H              1.5102-6
 HCN             1.4620-4
 HCO             1.1052-9
 HCCO            1.073-13
 HNC             1.3749-6
 HNCO            5.2938-8
 *H2             1.7530-1
 HCHO,formaldehy 2.2610-8
 HCOOH           3.358-11
 H2O             2.1165-4
 *N              1.512-15
 NCO             9.498-14
 *NH             1.029-13
 NH2             1.059-10
 NH3             5.1295-6
 *NO             4.344-13
 *N2             4.7264-1
 N2H2            9.923-16
 *O              2.663-16
 *OH             4.040-11
 C(gr)           1.0057-1

  * THERMODYNAMIC PROPERTIES FITTED TO 20000.K









         THERMODYNAMIC EQUILIBRIUM COMBUSTION PROPERTIES AT ASSIGNED

                                   PRESSURES

 CASE =                

             REACTANT                       MOLES         ENERGY      TEMP
                                                         KJ/KG-MOL      K
 FUEL        C6H6                         1.0000000     83032.119    300.000
 OXIDANT     O2                           7.5000000        54.358    300.000
 OXIDANT     N2                          28.2143000        53.881    300.000

 O/F=    3.66415  %FUEL= 21.440119  R,EQ.RATIO= 3.600000  PHI,EQ.RATIO= 3.600000

 THERMODYNAMIC PROPERTIES

 P, BAR            1.0000
 T, K             1375.58
 RHO, KG/CU M    2.1244-1
 H, KJ/KG          229.38
 U, KJ/KG         -241.35
 G, KJ/KG        -13390.3
 S, KJ/(KG)(K)     9.9011

 M, (1/n)          24.297
 MW, MOL WT        21.649
 (dLV/dLP)t      -1.00063
 (dLV/dLT)p        1.0071
 Cp, KJ/(KG)(K)    1.5548
 GAMMAs            1.2863
 SON VEL,M/SEC      778.1

 MOLE FRACTIONS

 CH2             1.761-13
 CH3             2.7800-8
 CH2OH           3.020-14
 CH3O            1.030-15
 CH4             1.7723-4
 CH3OH           9.045-12
 *CN             2.830-12
 *CO             2.4706-1
 *CO2            1.5169-4
 COOH            2.327-13
 C2H             2.002-15
 C2H2,acetylene  3.1928-7
 C2H2,vinylidene 2.122-13
 CH2CO,ketene    5.7806-9
 O(CH)2O         1.919-16
 C2H3,vinyl      1.892-12
 CH3CN           2.8815-8
 CH3CO,acetyl    1.668-13
 C2H4            7.1231-8
 CH3CHO,ethanal  4.848-12
 CH3COOH         1.300-15
 C2H5            6.919-13
 C2H6            3.498-10
 C2H5OH          1.834-16
 OCCN            1.356-14
 C2N2            1.668-10
 C2O             7.764-15
 C3H3,2-propynl  1.459-12
 C3H4,allene     5.878-12
 C3H4,propyne    1.755-11
 C3H4,cyclo-     2.492-15
 C3H5,allyl      4.895-14
 C3H6,propylene  2.225-12
 C3H6,cyclo-     3.043-15
 C3H8            2.097-15
 C3O2            5.696-13
 C4H2,butadiyne  2.148-13
 C4H6,butadiene  4.521-15
 C4H6,1butyne    1.126-16
 C4H6,2butyne    1.687-16
 C4N2            1.047-16
 C6H6            1.362-15
 *H              1.3757-6
 HCN             1.3821-4
 HCO             1.0330-9
 HCCO            9.461-14
 HNC             1.2658-6
 HNCO            5.2759-8
 *H2             1.7761-1
 HCHO,formaldehy 2.2829-8
 HCOOH           3.590-11
 H2O             2.2582-4
 *N              1.219-15
 NCO             8.402-14
 *NH             8.841-14
 NH2             9.897-11
 NH3             5.3678-6
 *NO             3.910-13
 *N2             4.6563-1
 N2H2            9.162-16
 *O              2.244-16
 *OH             3.776-11
 C(gr)           1.0900-1

  * THERMODYNAMIC PROPERTIES FITTED TO 20000.K



