
 *******************************************************************************

         NASA-GLENN CHEMICAL EQUILIBRIUM PROGRAM CEA2, MAY 21, 2004
                   BY  BONNIE MCBRIDE AND SANFORD GORDON
      REFS: NASA RP-1311, PART I, 1994 AND NASA RP-1311, PART II, 1996

 *******************************************************************************



 problem    phi,eq.ratio=2.1,2.2,2.3,2.4,2.5,2.6,2.7,2.8,.9,3,3.1,3.2,3.3,3.4,3.5
 ,3.6,
       hp   p,bar=1,  t,k=3800
 react
   fuel=CH3OH moles=1 t,k=300
   oxid=O2 moles=1.5 t,k=300
   oxid=N2 moles=5.6429 t,k=300
 output
      trace=1e-16 siunits short
 end




         THERMODYNAMIC EQUILIBRIUM COMBUSTION PROPERTIES AT ASSIGNED

                                   PRESSURES

 CASE =                

             REACTANT                       MOLES         ENERGY      TEMP
                                                         KJ/KG-MOL      K
 FUEL        CH3OH                        1.0000000   -200858.418    300.000
 OXIDANT     O2                           1.5000000        54.358    300.000
 OXIDANT     N2                           5.6429000        53.881    300.000

 O/F=    3.06259  %FUEL= 24.614862  R,EQ.RATIO= 1.647059  PHI,EQ.RATIO= 2.100000

 THERMODYNAMIC PROPERTIES

 P, BAR            1.0000
 T, K             1647.97
 RHO, KG/CU M    1.6705-1
 H, KJ/KG        -1541.60
 U, KJ/KG        -2140.24
 G, KJ/KG        -19722.6
 S, KJ/(KG)(K)    11.0323

 M, (1/n)          22.889
 (dLV/dLP)t      -1.00001
 (dLV/dLT)p        1.0003
 Cp, KJ/(KG)(K)    1.7438
 GAMMAs            1.2633
 SON VEL,M/SEC      869.6

 MOLE FRACTIONS

 CH2             2.358-15
 CH3             9.056-12
 CH2OH           3.506-14
 CH3O            2.047-15
 CH4             1.9299-9
 CH3OH           5.867-13
 *CN             1.006-13
 *CO             1.2458-1
 *CO2            5.1252-2
 COOH            8.972-10
 C2H2,acetylene  2.588-14
 CH2CO,ketene    3.151-13
 CH3CN           1.711-16
 C2H4            2.943-16
 *H              3.4722-5
 HCN             5.1966-8
 HCO             4.0028-9
 HCCO            1.648-16
 HNC             1.1760-9
 HNCO            1.9957-8
 HNO             7.301-12
 HNO2            1.827-14
 HO2             1.420-13
 *H2             1.5171-1
 HCHO,formaldehy 8.1739-9
 HCOOH           1.1377-8
 H2O             1.9994-1
 H2O2            1.384-12
 *N              1.310-12
 NCO             1.449-12
 *NH             1.431-11
 NH2             1.1450-9
 NH3             1.6869-6
 NH2OH           3.588-14
 *NO             6.0357-8
 NO2             7.123-15
 *N2             4.7248-1
 N2H2            1.414-14
 N2O             2.767-12
 *O              3.823-10
 *OH             2.3859-6
 *O2             2.282-10

  * THERMODYNAMIC PROPERTIES FITTED TO 20000.K









         THERMODYNAMIC EQUILIBRIUM COMBUSTION PROPERTIES AT ASSIGNED

                                   PRESSURES

 CASE =                

             REACTANT                       MOLES         ENERGY      TEMP
                                                         KJ/KG-MOL      K
 FUEL        CH3OH                        1.0000000   -200858.418    300.000
 OXIDANT     O2                           1.5000000        54.358    300.000
 OXIDANT     N2                           5.6429000        53.881    300.000

 O/F=    2.92338  %FUEL= 25.488241  R,EQ.RATIO= 1.692308  PHI,EQ.RATIO= 2.200000

 THERMODYNAMIC PROPERTIES

 P, BAR            1.0000
 T, K             1602.67
 RHO, KG/CU M    1.6952-1
 H, KJ/KG        -1596.37
 U, KJ/KG        -2186.26
 G, KJ/KG        -19379.9
 S, KJ/(KG)(K)    11.0962

 M, (1/n)          22.590
 (dLV/dLP)t      -1.00001
 (dLV/dLT)p        1.0002
 Cp, KJ/(KG)(K)    1.7557
 GAMMAs            1.2654
 SON VEL,M/SEC      864.0

 MOLE FRACTIONS

 CH2             1.779-15
 CH3             1.187-11
 CH2OH           3.446-14
 CH3O            1.860-15
 CH4             4.1924-9
 CH3OH           8.891-13
 *CN             6.194-14
 *CO             1.2917-1
 *CO2            5.0526-2
 COOH            6.388-10
 C2H2,acetylene  4.155-14
 CH2CO,ketene    4.813-13
 CH3CN           3.996-16
 C2H4            7.549-16
 *H              2.2736-5
 HCN             6.2566-8
 HCO             3.1703-9
 HCCO            1.502-16
 HNC             1.2445-9
 HNCO            2.1585-8
 HNO             3.270-12
 HNO2            6.287-15
 HO2             4.151-14
 *H2             1.6486-1
 HCHO,formaldehy 9.2924-9
 HCOOH           1.1806-8
 H2O             1.9451-1
 H2O2            5.744-13
 *N              4.819-13
 NCO             8.881-13
 *NH             7.055-12
 NH2             8.411-10
 NH3             2.1195-6
 NH2OH           2.392-14
 *NO             2.6351-8
 NO2             1.866-15
 *N2             4.6091-1
 N2H2            9.751-15
 N2O             1.205-12
 *O              1.207-10
 *OH             1.2341-6
 *O2             6.504-11

  * THERMODYNAMIC PROPERTIES FITTED TO 20000.K









         THERMODYNAMIC EQUILIBRIUM COMBUSTION PROPERTIES AT ASSIGNED

                                   PRESSURES

 CASE =                

             REACTANT                       MOLES         ENERGY      TEMP
                                                         KJ/KG-MOL      K
 FUEL        CH3OH                        1.0000000   -200858.418    300.000
 OXIDANT     O2                           1.5000000        54.358    300.000
 OXIDANT     N2                           5.6429000        53.881    300.000

 O/F=    2.79627  %FUEL= 26.341615  R,EQ.RATIO= 1.735849  PHI,EQ.RATIO= 2.300000

 THERMODYNAMIC PROPERTIES

 P, BAR            1.0000
 T, K             1559.21
 RHO, KG/CU M    1.7205-1
 H, KJ/KG        -1649.88
 U, KJ/KG        -2231.09
 G, KJ/KG        -19045.5
 S, KJ/(KG)(K)    11.1567

 M, (1/n)          22.305
 (dLV/dLP)t      -1.00001
 (dLV/dLT)p        1.0001
 Cp, KJ/(KG)(K)    1.7678
 GAMMAs            1.2673
 SON VEL,M/SEC      858.2

 MOLE FRACTIONS

 CH2             1.304-15
 CH3             1.516-11
 CH2OH           3.320-14
 CH3O            1.656-15
 CH4             8.9028-9
 CH3OH           1.323-12
 *CN             3.734-14
 *CO             1.3331-1
 *CO2            5.0062-2
 COOH            4.528-10
 C2H2,acetylene  6.459-14
 CH2CO,ketene    7.185-13
 CH3CN           9.046-16
 C2H4            1.869-15
 CH3CHO,ethanal  1.478-16
 *H              1.4733-5
 HCN             7.4107-8
 HCO             2.4780-9
 HCCO            1.335-16
 HNC             1.2933-9
 HNCO            2.3160-8
 HNO             1.457-12
 HNO2            2.165-15
 HO2             1.211-14
 *H2             1.7761-1
 HCHO,formaldehy 1.0430-8
 HCOOH           1.2210-8
 H2O             1.8912-1
 H2O2            2.377-13
 *N              1.749-13
 NCO             5.386-13
 *NH             3.429-12
 NH2             6.095-10
 NH3             2.6339-6
 NH2OH           1.580-14
 *NO             1.1489-8
 NO2             4.896-16
 *N2             4.4988-1
 N2H2            6.636-15
 N2O             5.248-13
 *O              3.790-11
 *OH             6.3551-7
 *O2             1.858-11

  * THERMODYNAMIC PROPERTIES FITTED TO 20000.K









         THERMODYNAMIC EQUILIBRIUM COMBUSTION PROPERTIES AT ASSIGNED

                                   PRESSURES

 CASE =                

             REACTANT                       MOLES         ENERGY      TEMP
                                                         KJ/KG-MOL      K
 FUEL        CH3OH                        1.0000000   -200858.418    300.000
 OXIDANT     O2                           1.5000000        54.358    300.000
 OXIDANT     N2                           5.6429000        53.881    300.000

 O/F=    2.67976  %FUEL= 27.175664  R,EQ.RATIO= 1.777778  PHI,EQ.RATIO= 2.400000

 THERMODYNAMIC PROPERTIES

 P, BAR            1.0000
 T, K             1517.47
 RHO, KG/CU M    1.7463-1
 H, KJ/KG        -1702.18
 U, KJ/KG        -2274.81
 G, KJ/KG        -18719.2
 S, KJ/(KG)(K)    11.2141

 M, (1/n)          22.034
 (dLV/dLP)t      -1.00001
 (dLV/dLT)p        1.0001
 Cp, KJ/(KG)(K)    1.7802
 GAMMAs            1.2690
 SON VEL,M/SEC      852.5

 MOLE FRACTIONS

 CH2             9.322-16
 CH3             1.895-11
 CH2OH           3.145-14
 CH3O            1.449-15
 CH4             1.8573-8
 CH3OH           1.940-12
 *CN             2.208-14
 *CO             1.3705-1
 *CO2            4.9822-2
 COOH            3.195-10
 C2H2,acetylene  9.777-14
 CH2CO,ketene    1.053-12
 CH3CN           1.998-15
 C2H4            4.500-15
 CH3CHO,ethanal  3.019-16
 C3O2            1.032-16
 *H              9.4534-6
 HCN             8.6595-8
 HCO             1.9142-9
 HCCO            1.160-16
 HNC             1.3233-9
 HNCO            2.4689-8
 HNO             6.447-13
 HNO2            7.442-16
 HO2             3.514-15
 *H2             1.8997-1
 HCHO,formaldehy 1.1583-8
 HCOOH           1.2597-8
 H2O             1.8377-1
 H2O2            9.802-14
 *N              6.262-14
 NCO             3.233-13
 *NH             1.644-12
 NH2             4.362-10
 NH3             3.2443-6
 NH2OH           1.035-14
 *NO             4.9953-9
 NO2             1.283-16
 *N2             4.3938-1
 N2H2            4.463-15
 N2O             2.281-13
 *O              1.181-11
 *OH             3.2556-7
 *O2             5.301-12

  * THERMODYNAMIC PROPERTIES FITTED TO 20000.K









         THERMODYNAMIC EQUILIBRIUM COMBUSTION PROPERTIES AT ASSIGNED

                                   PRESSURES

 CASE =                

             REACTANT                       MOLES         ENERGY      TEMP
                                                         KJ/KG-MOL      K
 FUEL        CH3OH                        1.0000000   -200858.418    300.000
 OXIDANT     O2                           1.5000000        54.358    300.000
 OXIDANT     N2                           5.6429000        53.881    300.000

 O/F=    2.57257  %FUEL= 27.991035  R,EQ.RATIO= 1.818182  PHI,EQ.RATIO= 2.500000

 THERMODYNAMIC PROPERTIES

 P, BAR            1.0000
 T, K             1477.37
 RHO, KG/CU M    1.7726-1
 H, KJ/KG        -1753.31
 U, KJ/KG        -2317.43
 G, KJ/KG        -18400.9
 S, KJ/(KG)(K)    11.2684

 M, (1/n)          21.774
 (dLV/dLP)t      -1.00001
 (dLV/dLT)p        1.0001
 Cp, KJ/(KG)(K)    1.7928
 GAMMAs            1.2707
 SON VEL,M/SEC      846.7

 MOLE FRACTIONS

 CH2             6.515-16
 CH3             2.327-11
 CH2OH           2.936-14
 CH3O            1.248-15
 CH4             3.8216-8
 CH3OH           2.811-12
 *CN             1.283-14
 *CO             1.4044-1
 *CO2            4.9778-2
 COOH            2.245-10
 C2H2,acetylene  1.448-13
 CH2CO,ketene    1.519-12
 CH3CN           4.327-15
 C2H4            1.059-14
 CH3CHO,ethanal  6.061-16
 CH3COOH         1.069-16
 C2N2            1.053-16
 C3O2            1.208-16
 *H              6.0089-6
 HCN             1.0004-7
 HCO             1.4629-9
 HNC             1.3362-9
 HNCO            2.6176-8
 HNO             2.833-13
 HNO2            2.550-16
 HO2             1.013-15
 *H2             2.0194-1
 HCHO,formaldehy 1.2750-8
 HCOOH           1.2971-8
 H2O             1.7848-1
 H2O2            4.021-14
 *N              2.211-14
 NCO             1.921-13
 *NH             7.772-13
 NH2             3.087-10
 NH3             3.9675-6
 NH2OH           6.724-15
 *NO             2.1629-9
 *N2             4.2935-1
 N2H2            2.969-15
 N2O             9.884-14
 *O              3.644-12
 *OH             1.6579-7
 *O2             1.508-12

  * THERMODYNAMIC PROPERTIES FITTED TO 20000.K









         THERMODYNAMIC EQUILIBRIUM COMBUSTION PROPERTIES AT ASSIGNED

                                   PRESSURES

 CASE =                

             REACTANT                       MOLES         ENERGY      TEMP
                                                         KJ/KG-MOL      K
 FUEL        CH3OH                        1.0000000   -200858.418    300.000
 OXIDANT     O2                           1.5000000        54.358    300.000
 OXIDANT     N2                           5.6429000        53.881    300.000

 O/F=    2.47363  %FUEL= 28.788350  R,EQ.RATIO= 1.857143  PHI,EQ.RATIO= 2.600000

 THERMODYNAMIC PROPERTIES

 P, BAR            1.0000
 T, K             1438.81
 RHO, KG/CU M    1.7995-1
 H, KJ/KG        -1803.30
 U, KJ/KG        -2359.02
 G, KJ/KG        -18090.5
 S, KJ/(KG)(K)    11.3199

 M, (1/n)          21.527
 (dLV/dLP)t      -1.00001
 (dLV/dLT)p        1.0001
 Cp, KJ/(KG)(K)    1.8056
 GAMMAs            1.2721
 SON VEL,M/SEC      840.8

 MOLE FRACTIONS

 CH2             4.461-16
 CH3             2.813-11
 CH2OH           2.705-14
 CH3O            1.061-15
 CH4             7.7803-8
 CH3OH           4.034-12
 *CN             7.329-15
 *CO             1.4350-1
 *CO2            4.9909-2
 COOH            1.570-10
 C2H2,acetylene  2.104-13
 CH2CO,ketene    2.163-12
 CH3CN           9.227-15
 C2H4            2.449-14
 CH3CHO,ethanal  1.200-15
 CH3COOH         1.981-16
 C2N2            1.162-16
 C3O2            1.397-16
 *H              3.7850-6
 HCN             1.1447-7
 HCO             1.1070-9
 HNC             1.3337-9
 HNCO            2.7627-8
 HNO             1.236-13
 HO2             2.898-16
 *H2             2.1356-1
 HCHO,formaldehy 1.3928-8
 HCOOH           1.3336-8
 H2O             1.7326-1
 H2O2            1.639-14
 *N              7.701-15
 NCO             1.131-13
 *NH             3.627-13
 NH2             2.161-10
 NH3             4.8236-6
 NH2OH           4.334-15
 *NO             9.317-10
 *N2             4.1977-1
 N2H2            1.955-15
 N2O             4.265-14
 *O              1.113-12
 *OH             8.3888-8
 *O2             4.266-13

  * THERMODYNAMIC PROPERTIES FITTED TO 20000.K









         THERMODYNAMIC EQUILIBRIUM COMBUSTION PROPERTIES AT ASSIGNED

                                   PRESSURES

 CASE =                

             REACTANT                       MOLES         ENERGY      TEMP
                                                         KJ/KG-MOL      K
 FUEL        CH3OH                        1.0000000   -200858.418    300.000
 OXIDANT     O2                           1.5000000        54.358    300.000
 OXIDANT     N2                           5.6429000        53.881    300.000

 O/F=    2.38201  %FUEL= 29.568202  R,EQ.RATIO= 1.894737  PHI,EQ.RATIO= 2.700000

 THERMODYNAMIC PROPERTIES

 P, BAR            1.0000
 T, K             1401.70
 RHO, KG/CU M    1.8268-1
 H, KJ/KG        -1852.20
 U, KJ/KG        -2399.61
 G, KJ/KG        -17787.8
 S, KJ/(KG)(K)    11.3688

 M, (1/n)          21.290
 (dLV/dLP)t      -1.00001
 (dLV/dLT)p        1.0001
 Cp, KJ/(KG)(K)    1.8187
 GAMMAs            1.2735
 SON VEL,M/SEC      834.9

 MOLE FRACTIONS

 CH2             2.998-16
 CH3             3.356-11
 CH2OH           2.463-14
 CH3O            8.909-16
 CH4             1.5712-7
 CH3OH           5.743-12
 *CN             4.122-15
 *CO             1.4627-1
 *CO2            5.0197-2
 COOH            1.093-10
 C2H2,acetylene  3.009-13
 CH2CO,ketene    3.050-12
 CH3CN           1.944-14
 C2H4            5.581-14
 CH3CHO,ethanal  2.351-15
 CH3COOH         3.650-16
 C2H6            2.449-16
 C2N2            1.267-16
 C3O2            1.599-16
 *H              2.3633-6
 HCN             1.2991-7
 HCO             8.299-10
 HNC             1.3177-9
 HNCO            2.9046-8
 HNO             5.344-14
 *H2             2.2482-1
 HCHO,formaldehy 1.5115-8
 HCOOH           1.3697-8
 H2O             1.6810-1
 H2O2            6.638-15
 *N              2.644-15
 NCO             6.596-14
 *NH             1.671-13
 NH2             1.498-10
 NH3             5.8363-6
 NH2OH           2.772-15
 *NO             3.990-10
 *N2             4.1060-1
 N2H2            1.275-15
 N2O             1.831-14
 *O              3.365-13
 *OH             4.2153-8
 *O2             1.199-13

  * THERMODYNAMIC PROPERTIES FITTED TO 20000.K









         THERMODYNAMIC EQUILIBRIUM COMBUSTION PROPERTIES AT ASSIGNED

                                   PRESSURES

 CASE =                

             REACTANT                       MOLES         ENERGY      TEMP
                                                         KJ/KG-MOL      K
 FUEL        CH3OH                        1.0000000   -200858.418    300.000
 OXIDANT     O2                           1.5000000        54.358    300.000
 OXIDANT     N2                           5.6429000        53.881    300.000

 O/F=    2.29694  %FUEL= 30.331159  R,EQ.RATIO= 1.931034  PHI,EQ.RATIO= 2.800000

 THERMODYNAMIC PROPERTIES

 P, BAR            1.0000
 T, K             1365.98
 RHO, KG/CU M    1.8546-1
 H, KJ/KG        -1900.04
 U, KJ/KG        -2439.24
 G, KJ/KG        -17492.6
 S, KJ/(KG)(K)    11.4150

 M, (1/n)          21.064
 (dLV/dLP)t      -1.00001
 (dLV/dLT)p        1.0001
 Cp, KJ/(KG)(K)    1.8320
 GAMMAs            1.2747
 SON VEL,M/SEC      829.0

 MOLE FRACTIONS

 CH2             1.980-16
 CH3             3.958-11
 CH2OH           2.219-14
 CH3O            7.399-16
 CH4             3.1540-7
 CH3OH           8.126-12
 *CN             2.284-15
 *CO             1.4876-1
 *CO2            5.0629-2
 COOH            7.574-11
 C2H2,acetylene  4.248-13
 CH2CO,ketene    4.261-12
 CH3CN           4.055-14
 CH3CO,acetyl    1.307-16
 C2H4            1.258-13
 CH3CHO,ethanal  4.566-15
 CH3COOH         6.699-16
 C2H6            7.976-16
 C2N2            1.365-16
 C3O2            1.814-16
 *H              1.4631-6
 HCN             1.4640-7
 HCO             6.167-10
 HNC             1.2902-9
 HNCO            3.0437-8
 HNO             2.291-14
 *H2             2.3576-1
 HCHO,formaldehy 1.6310-8
 HCOOH           1.4056-8
 H2O             1.6300-1
 H2O2            2.667-15
 *N              8.946-16
 NCO             3.811-14
 *NH             7.599-14
 NH2             1.029-10
 NH3             7.0341-6
 NH2OH           1.760-15
 *NO             1.697-10
 *N2             4.0183-1
 N2H2            8.239-16
 N2O             7.814-15
 *O              1.005-13
 *OH             2.1027-8
 *O2             3.341-14

  * THERMODYNAMIC PROPERTIES FITTED TO 20000.K









         THERMODYNAMIC EQUILIBRIUM COMBUSTION PROPERTIES AT ASSIGNED

                                   PRESSURES

 CASE =                

             REACTANT                       MOLES         ENERGY      TEMP
                                                         KJ/KG-MOL      K
 FUEL        CH3OH                        1.0000000   -200858.418    300.000
 OXIDANT     O2                           1.5000000        54.358    300.000
 OXIDANT     N2                           5.6429000        53.881    300.000

 O/F=    7.14603  %FUEL= 12.275912  R,EQ.RATIO= 0.923077  PHI,EQ.RATIO= 0.900000

 THERMODYNAMIC PROPERTIES

 P, BAR            1.0000
 T, K             2144.09
 RHO, KG/CU M    1.5465-1
 H, KJ/KG         -767.89
 U, KJ/KG        -1414.53
 G, KJ/KG        -21909.2
 S, KJ/(KG)(K)     9.8603

 M, (1/n)          27.569
 (dLV/dLP)t      -1.00140
 (dLV/dLT)p        1.0434
 Cp, KJ/(KG)(K)    1.9622
 GAMMAs            1.1990
 SON VEL,M/SEC      880.5

 MOLE FRACTIONS

 *CN             3.797-15
 *CO             3.1475-3
 *CO2            1.0247-1
 COOH            3.2985-9
 *H              1.4458-4
 HCN             1.053-12
 HCO             1.180-10
 HNC             6.830-14
 HNCO            4.989-11
 HNO             3.7610-8
 HNO2            4.1643-8
 HNO3            2.827-12
 HO2             1.1251-6
 *H2             1.2563-3
 HCHO,formaldehy 1.621-12
 HCOOH           2.528-10
 H2O             2.0820-1
 H2O2            8.0344-8
 *N              5.1019-9
 NCO             2.959-12
 *NH             6.400-10
 NH2             2.506-10
 NH3             5.861-10
 NH2OH           1.186-13
 *NO             2.9217-3
 NO2             1.1690-6
 NO3             5.819-13
 *N2             6.6078-1
 N2H2            5.836-15
 N2O             1.4966-7
 N2O3            6.135-15
 N3              6.205-15
 N3H             1.087-15
 *O              2.4761-4
 *OH             3.4326-3
 *O2             1.7397-2
 O3              2.478-10

  * THERMODYNAMIC PROPERTIES FITTED TO 20000.K









         THERMODYNAMIC EQUILIBRIUM COMBUSTION PROPERTIES AT ASSIGNED

                                   PRESSURES

 CASE =                

             REACTANT                       MOLES         ENERGY      TEMP
                                                         KJ/KG-MOL      K
 FUEL        CH3OH                        1.0000000   -200858.418    300.000
 OXIDANT     O2                           1.5000000        54.358    300.000
 OXIDANT     N2                           5.6429000        53.881    300.000

 O/F=    2.14381  %FUEL= 31.808534  R,EQ.RATIO= 2.000000  PHI,EQ.RATIO= 3.000000

 THERMODYNAMIC PROPERTIES

 P, BAR            1.0000
 T, K             1298.41
 RHO, KG/CU M    1.9117-1
 H, KJ/KG        -1992.68
 U, KJ/KG        -2515.77
 G, KJ/KG        -16924.5
 S, KJ/(KG)(K)    11.5001

 M, (1/n)          20.638
 (dLV/dLP)t      -1.00002
 (dLV/dLT)p        1.0001
 Cp, KJ/(KG)(K)    1.8598
 GAMMAs            1.2766
 SON VEL,M/SEC      817.2

 MOLE FRACTIONS

 CH3             5.347-11
 CH2OH           1.752-14
 CH3O            4.954-16
 CH4             1.2564-6
 CH3OH           1.603-11
 *CN             6.726-16
 *CO             1.5300-1
 *CO2            5.1881-2
 COOH            3.585-11
 C2H2,acetylene  8.194-13
 CH2CO,ketene    8.149-12
 CH3CN           1.729-13
 CH3CO,acetyl    2.201-16
 C2H4            6.231-13
 CH3CHO,ethanal  1.691-14
 CH3COOH         2.243-15
 C2H6            8.288-15
 C2N2            1.540-16
 C3O2            2.284-16
 *H              5.4699-7
 HCN             1.8272-7
 HCO             3.324-10
 HNC             1.2083-9
 HNCO            3.3152-8
 HNO             4.098-15
 *H2             2.5674-1
 HCHO,formaldehy 1.8721-8
 HCOOH           1.4775-8
 H2O             1.5300-1
 H2O2            4.197-16
 NCO             1.239-14
 *NH             1.514-14
 NH2             4.725-11
 NH3             1.0126-5
 NH2OH           6.944-16
 *NO             3.001-11
 *N2             3.8537-1
 N2H2            3.352-16
 N2O             1.395-15
 *O              8.632-15
 *OH             5.1123-9
 *O2             2.521-15

  * THERMODYNAMIC PROPERTIES FITTED TO 20000.K









         THERMODYNAMIC EQUILIBRIUM COMBUSTION PROPERTIES AT ASSIGNED

                                   PRESSURES

 CASE =                

             REACTANT                       MOLES         ENERGY      TEMP
                                                         KJ/KG-MOL      K
 FUEL        CH3OH                        1.0000000   -200858.418    300.000
 OXIDANT     O2                           1.5000000        54.358    300.000
 OXIDANT     N2                           5.6429000        53.881    300.000

 O/F=    2.07466  %FUEL= 32.523972  R,EQ.RATIO= 2.032787  PHI,EQ.RATIO= 3.100000

 THERMODYNAMIC PROPERTIES

 P, BAR            1.0000
 T, K             1266.44
 RHO, KG/CU M    1.9410-1
 H, KJ/KG        -2037.54
 U, KJ/KG        -2552.74
 G, KJ/KG        -16651.3
 S, KJ/(KG)(K)    11.5392

 M, (1/n)          20.438
 (dLV/dLP)t      -1.00002
 (dLV/dLT)p        1.0002
 Cp, KJ/(KG)(K)    1.8744
 GAMMAs            1.2773
 SON VEL,M/SEC      811.2

 MOLE FRACTIONS

 CH3             6.139-11
 CH2OH           1.537-14
 CH3O            3.999-16
 CH4             2.4997-6
 CH3OH           2.239-11
 *CN             3.578-16
 *CO             1.5477-1
 *CO2            5.2685-2
 COOH            2.449-11
 C2H2,acetylene  1.123-12
 CH2CO,ketene    1.118-11
 CH3CN           3.547-13
 CH3CO,acetyl    2.824-16
 C2H4            1.375-12
 CH3CHO,ethanal  3.235-14
 CH3COOH         4.101-15
 C2H6            2.656-14
 C2N2            1.616-16
 C3O2            2.539-16
 *H              3.3046-7
 HCN             2.0267-7
 HCO             2.412-10
 HNC             1.1576-9
 HNCO            3.4481-8
 HNO             1.709-15
 *H2             2.6681-1
 HCHO,formaldehy 1.9934-8
 HCOOH           1.5138-8
 H2O             1.4809-1
 H2O2            1.642-16
 NCO             6.973-15
 *NH             6.631-15
 NH2             3.162-11
 NH3             1.2108-5
 NH2OH           4.315-16
 *NO             1.247-11
 *N2             3.7763-1
 N2H2            2.111-16
 N2O             5.834-16
 *O              2.480-15
 *OH             2.4907-9
 *O2             6.812-16

  * THERMODYNAMIC PROPERTIES FITTED TO 20000.K









         THERMODYNAMIC EQUILIBRIUM COMBUSTION PROPERTIES AT ASSIGNED

                                   PRESSURES

 CASE =                

             REACTANT                       MOLES         ENERGY      TEMP
                                                         KJ/KG-MOL      K
 FUEL        CH3OH                        1.0000000   -200858.418    300.000
 OXIDANT     O2                           1.5000000        54.358    300.000
 OXIDANT     N2                           5.6429000        53.881    300.000

 O/F=    2.00982  %FUEL= 33.224554  R,EQ.RATIO= 2.064516  PHI,EQ.RATIO= 3.200000

 THERMODYNAMIC PROPERTIES

 P, BAR            1.0000
 T, K             1235.62
 RHO, KG/CU M    1.9707-1
 H, KJ/KG        -2081.47
 U, KJ/KG        -2588.90
 G, KJ/KG        -16385.2
 S, KJ/(KG)(K)    11.5761

 M, (1/n)          20.247
 (dLV/dLP)t      -1.00003
 (dLV/dLT)p        1.0003
 Cp, KJ/(KG)(K)    1.8897
 GAMMAs            1.2778
 SON VEL,M/SEC      805.2

 MOLE FRACTIONS

 CH3             7.000-11
 CH2OH           1.339-14
 CH3O            3.203-16
 CH4             4.9693-6
 CH3OH           3.118-11
 *CN             1.880-16
 *CO             1.5633-1
 *CO2            5.3599-2
 COOH            1.664-11
 C2H2,acetylene  1.528-12
 CH2CO,ketene    1.527-11
 CH3CN           7.255-13
 CH3CO,acetyl    3.600-16
 C2H4            3.023-12
 CH3CHO,ethanal  6.172-14
 CH3COOH         7.502-15
 C2H6            8.500-14
 C2N2            1.685-16
 C3O2            2.808-16
 *H              1.9811-7
 HCN             2.2390-7
 HCO             1.738-10
 HNC             1.1024-9
 HNCO            3.5797-8
 HNO             7.055-16
 *H2             2.7662-1
 HCHO,formaldehy 2.1151-8
 HCOOH           1.5504-8
 H2O             1.4322-1
 NCO             3.891-15
 *NH             2.870-15
 NH2             2.099-11
 NH3             1.4452-5
 NH2OH           2.663-16
 *NO             5.140-12
 *N2             3.7020-1
 N2H2            1.320-16
 N2O             2.421-16
 *O              7.033-16
 *OH             1.2036-9
 *O2             1.820-16

  * THERMODYNAMIC PROPERTIES FITTED TO 20000.K









         THERMODYNAMIC EQUILIBRIUM COMBUSTION PROPERTIES AT ASSIGNED

                                   PRESSURES

 CASE =                

             REACTANT                       MOLES         ENERGY      TEMP
                                                         KJ/KG-MOL      K
 FUEL        CH3OH                        1.0000000   -200858.418    300.000
 OXIDANT     O2                           1.5000000        54.358    300.000
 OXIDANT     N2                           5.6429000        53.881    300.000

 O/F=    1.94892  %FUEL= 33.910737  R,EQ.RATIO= 2.095238  PHI,EQ.RATIO= 3.300000

 THERMODYNAMIC PROPERTIES

 P, BAR            1.0000
 T, K             1205.90
 RHO, KG/CU M    2.0009-1
 H, KJ/KG        -2124.50
 U, KJ/KG        -2624.27
 G, KJ/KG        -16126.2
 S, KJ/(KG)(K)    11.6110

 M, (1/n)          20.062
 (dLV/dLP)t      -1.00006
 (dLV/dLT)p        1.0006
 Cp, KJ/(KG)(K)    1.9062
 GAMMAs            1.2781
 SON VEL,M/SEC      799.2

 MOLE FRACTIONS

 CH3             7.932-11
 CH2OH           1.158-14
 CH3O            2.545-16
 CH4             9.8765-6
 CH3OH           4.333-11
 *CO             1.5770-1
 *CO2            5.4616-2
 COOH            1.126-11
 C2H2,acetylene  2.067-12
 CH2CO,ketene    2.078-11
 CH3CN           1.481-12
 CH3CO,acetyl    4.564-16
 C2H4            6.628-12
 CH3CHO,ethanal  1.175-13
 CH3COOH         1.373-14
 C2H6            2.719-13
 C2N2            1.745-16
 C3O2            3.091-16
 *H              1.1789-7
 HCN             2.4650-7
 HCO             1.243-10
 HNC             1.0442-9
 HNCO            3.7099-8
 HNO             2.885-16
 *H2             2.8619-1
 HCHO,formaldehy 2.2370-8
 HCOOH           1.5874-8
 H2O             1.3842-1
 NCO             2.154-15
 *NH             1.228-15
 NH2             1.383-11
 NH3             1.7225-5
 NH2OH           1.633-16
 *NO             2.100-12
 *N2             3.6306-1
 *O              1.968-16
 *OH             5.769-10

  * THERMODYNAMIC PROPERTIES FITTED TO 20000.K









         THERMODYNAMIC EQUILIBRIUM COMBUSTION PROPERTIES AT ASSIGNED

                                   PRESSURES

 CASE =                

             REACTANT                       MOLES         ENERGY      TEMP
                                                         KJ/KG-MOL      K
 FUEL        CH3OH                        1.0000000   -200858.418    300.000
 OXIDANT     O2                           1.5000000        54.358    300.000
 OXIDANT     N2                           5.6429000        53.881    300.000

 O/F=    1.89160  %FUEL= 34.582961  R,EQ.RATIO= 2.125000  PHI,EQ.RATIO= 3.400000

 THERMODYNAMIC PROPERTIES

 P, BAR            1.0000
 T, K             1177.25
 RHO, KG/CU M    2.0315-1
 H, KJ/KG        -2166.65
 U, KJ/KG        -2658.90
 G, KJ/KG        -15874.3
 S, KJ/(KG)(K)    11.6438

 M, (1/n)          19.885
 (dLV/dLP)t      -1.00010
 (dLV/dLT)p        1.0011
 Cp, KJ/(KG)(K)    1.9245
 GAMMAs            1.2782
 SON VEL,M/SEC      793.2

 MOLE FRACTIONS

 CH3             8.938-11
 CH2OH           9.944-15
 CH3O            2.009-16
 CH4             1.9631-5
 CH3OH           6.009-11
 *CO             1.5887-1
 *CO2            5.5732-2
 COOH            7.580-12
 C2H2,acetylene  2.779-12
 CH2CO,ketene    2.819-11
 CH3CN           3.020-12
 CH3CO,acetyl    5.757-16
 C2H4            1.450-11
 CH3CHO,ethanal  2.235-13
 CH3COOH         2.517-14
 C2H6            8.697-13
 C2N2            1.799-16
 C3O2            3.389-16
 *H              6.9671-8
 HCN             2.7055-7
 HCO             8.840-11
 HNC             9.843-10
 HNCO            3.8390-8
 HNO             1.169-16
 *H2             2.9551-1
 HCHO,formaldehy 2.3590-8
 HCOOH           1.6248-8
 H2O             1.3366-1
 NCO             1.183-15
 *NH             5.198-16
 NH2             9.048-12
 NH3             2.0503-5
 *NO             8.516-13
 *N2             3.5619-1
 *OH             2.744-10

  * THERMODYNAMIC PROPERTIES FITTED TO 20000.K









         THERMODYNAMIC EQUILIBRIUM COMBUSTION PROPERTIES AT ASSIGNED

                                   PRESSURES

 CASE =                

             REACTANT                       MOLES         ENERGY      TEMP
                                                         KJ/KG-MOL      K
 FUEL        CH3OH                        1.0000000   -200858.418    300.000
 OXIDANT     O2                           1.5000000        54.358    300.000
 OXIDANT     N2                           5.6429000        53.881    300.000

 O/F=    1.83755  %FUEL= 35.241648  R,EQ.RATIO= 2.153846  PHI,EQ.RATIO= 3.500000

 THERMODYNAMIC PROPERTIES

 P, BAR            1.0000
 T, K             1149.66
 RHO, KG/CU M    2.0625-1
 H, KJ/KG        -2207.96
 U, KJ/KG        -2692.81
 G, KJ/KG        -15629.9
 S, KJ/(KG)(K)    11.6747

 M, (1/n)          19.715
 (dLV/dLP)t      -1.00018
 (dLV/dLT)p        1.0021
 Cp, KJ/(KG)(K)    1.9461
 GAMMAs            1.2778
 SON VEL,M/SEC      787.1

 MOLE FRACTIONS

 CH3             1.002-10
 CH2OH           8.492-15
 CH3O            1.575-16
 CH4             3.9011-5
 CH3OH           8.316-11
 *CO             1.5986-1
 *CO2            5.6940-2
 COOH            5.082-12
 C2H2,acetylene  3.719-12
 CH2CO,ketene    3.813-11
 CH3CN           6.148-12
 CH3CO,acetyl    7.229-16
 C2H4            3.165-11
 CH3CHO,ethanal  4.243-13
 CH3COOH         4.617-14
 C2H5            1.285-16
 C2H6            2.781-12
 C2N2            1.845-16
 C3O2            3.702-16
 *H              4.0923-8
 HCN             2.9611-7
 HCO             6.248-11
 HNC             9.238-10
 HNCO            3.9670-8
 *H2             3.0460-1
 HCHO,formaldehy 2.4808-8
 HCOOH           1.6624-8
 H2O             1.2896-1
 NCO             6.456-16
 *NH             2.179-16
 NH2             5.882-12
 NH3             2.4373-5
 *NO             3.428-13
 *N2             3.4958-1
 *OH             1.297-10

  * THERMODYNAMIC PROPERTIES FITTED TO 20000.K









         THERMODYNAMIC EQUILIBRIUM COMBUSTION PROPERTIES AT ASSIGNED

                                   PRESSURES

 CASE =                

             REACTANT                       MOLES         ENERGY      TEMP
                                                         KJ/KG-MOL      K
 FUEL        CH3OH                        1.0000000   -200858.418    300.000
 OXIDANT     O2                           1.5000000        54.358    300.000
 OXIDANT     N2                           5.6429000        53.881    300.000

 O/F=    1.78651  %FUEL= 35.887203  R,EQ.RATIO= 2.181818  PHI,EQ.RATIO= 3.600000

 THERMODYNAMIC PROPERTIES

 P, BAR            1.0000
 T, K             1123.13
 RHO, KG/CU M    2.0937-1
 H, KJ/KG        -2248.43
 U, KJ/KG        -2726.06
 G, KJ/KG        -15393.3
 S, KJ/(KG)(K)    11.7038

 M, (1/n)          19.552
 (dLV/dLP)t      -1.00034
 (dLV/dLT)p        1.0041
 Cp, KJ/(KG)(K)    1.9740
 GAMMAs            1.2769
 SON VEL,M/SEC      781.0

 MOLE FRACTIONS

 CH3             1.117-10
 CH2OH           7.214-15
 CH3O            1.229-16
 CH4             7.7405-5
 CH3OH           1.148-10
 *CO             1.6067-1
 *CO2            5.8234-2
 COOH            3.397-12
 C2H2,acetylene  4.951-12
 CH2CO,ketene    5.141-11
 CH3CN           1.248-11
 CH3CO,acetyl    9.036-16
 C2H4            6.885-11
 CH3CHO,ethanal  8.034-13
 CH3COOH         8.462-14
 C2H5            2.426-16
 C2H6            8.870-12
 C2H5OH          2.022-16
 C2N2            1.884-16
 C3H6,propylene  1.908-16
 C3O2            4.029-16
 *H              2.3928-8
 HCN             3.2320-7
 HCO             4.395-11
 HNC             8.636-10
 HNCO            4.0935-8
 *H2             3.1343-1
 HCHO,formaldehy 2.6020-8
 HCOOH           1.7002-8
 H2O             1.2433-1
 NCO             3.505-16
 NH2             3.805-12
 NH3             2.8930-5
 *NO             1.374-13
 *N2             3.4323-1
 *OH             6.095-11

  * THERMODYNAMIC PROPERTIES FITTED TO 20000.K



