
 *******************************************************************************

         NASA-GLENN CHEMICAL EQUILIBRIUM PROGRAM CEA2, MAY 21, 2004
                   BY  BONNIE MCBRIDE AND SANFORD GORDON
      REFS: NASA RP-1311, PART I, 1994 AND NASA RP-1311, PART II, 1996

 *******************************************************************************



 problem    phi,eq.ratio=3.7,3.8,3.9,4,
       hp   p,bar=1,  t,k=3800
 react
   fuel=CH4 moles=1 t,k=300
   oxid=O2 moles=2 t,k=300
   oxid=N2 moles=7.5238 t,k=300
 output
      trace=1e-16 siunits short
 end




         THERMODYNAMIC EQUILIBRIUM COMBUSTION PROPERTIES AT ASSIGNED

                                   PRESSURES

 CASE =                

             REACTANT                       MOLES         ENERGY      TEMP
                                                         KJ/KG-MOL      K
 FUEL        CH4                          1.0000000    -74533.907    300.000
 OXIDANT     O2                           2.0000000        54.358    300.000
 OXIDANT     N2                           7.5238000        53.881    300.000

 O/F=    4.62901  %FUEL= 17.765103  R,EQ.RATIO= 3.700000  PHI,EQ.RATIO= 3.700000

 THERMODYNAMIC PROPERTIES

 P, BAR            1.0000
 T, K              955.51
 RHO, KG/CU M    2.4135-1
 H, KJ/KG         -823.84
 U, KJ/KG        -1238.17
 G, KJ/KG        -11750.3
 S, KJ/(KG)(K)    11.4352

 M, (1/n)          19.175
 MW, MOL WT        18.603
 (dLV/dLP)t      -1.04786
 (dLV/dLT)p        1.7803
 Cp, KJ/(KG)(K)    7.6483
 GAMMAs            1.1518
 SON VEL,M/SEC      690.8

 MOLE FRACTIONS

 CH3             3.524-10
 CH2OH           1.380-15
 CH4             1.8417-2
 CH3OH           8.273-10
 *CO             1.3149-1
 *CO2            2.6314-2
 COOH            5.702-14
 C2H2,acetylene  1.091-10
 CH2CO,ketene    5.983-10
 CH3CN           7.7346-9
 CH3CO,acetyl    5.599-15
 C2H4            5.6176-8
 CH3CHO,ethanal  1.098-10
 CH3COOH         4.422-12
 C2H5            6.348-14
 C2H6            1.1816-7
 C2H5OH          1.221-13
 C2N2            9.086-16
 C3H4,allene     2.010-14
 C3H4,propyne    7.716-14
 C3H5,allyl      6.596-16
 C3H6,propylene  1.320-11
 C3H6,cyclo-     4.977-15
 C3H6O,acetone   3.591-14
 C3H6O,propanal  2.129-15
 C3H8            3.229-12
 C3O2            8.547-16
 C4H6,butadiene  6.227-16
 C4H8,1-butene   3.402-16
 C4H8,cis2-buten 2.712-16
 C4H8,tr2-butene 3.146-16
 C4H8,isobutene  4.936-16
 C6H6            7.166-16
 *H              3.740-10
 HCN             1.1780-6
 HCO             2.253-12
 HNC             9.700-10
 HNCO            4.6732-8
 *H2             3.3643-1
 HCHO,formaldehy 2.6191-8
 HCOOH           6.9170-9
 H2O             3.8599-2
 NH2             1.432-13
 NH3             1.0348-4
 *N2             4.1886-1
 *OH             8.589-14
 C(gr)           2.9790-2

  * THERMODYNAMIC PROPERTIES FITTED TO 20000.K









         THERMODYNAMIC EQUILIBRIUM COMBUSTION PROPERTIES AT ASSIGNED

                                   PRESSURES

 CASE =                

             REACTANT                       MOLES         ENERGY      TEMP
                                                         KJ/KG-MOL      K
 FUEL        CH4                          1.0000000    -74533.907    300.000
 OXIDANT     O2                           2.0000000        54.358    300.000
 OXIDANT     N2                           7.5238000        53.881    300.000

 O/F=    4.50720  %FUEL= 18.158057  R,EQ.RATIO= 3.800000  PHI,EQ.RATIO= 3.800000

 THERMODYNAMIC PROPERTIES

 P, BAR            1.0000
 T, K              951.45
 RHO, KG/CU M    2.4187-1
 H, KJ/KG         -842.10
 U, KJ/KG        -1255.55
 G, KJ/KG        -11738.4
 S, KJ/(KG)(K)    11.4523

 M, (1/n)          19.134
 MW, MOL WT        18.438
 (dLV/dLP)t      -1.04891
 (dLV/dLT)p        1.7949
 Cp, KJ/(KG)(K)    7.7754
 GAMMAs            1.1509
 SON VEL,M/SEC      689.8

 MOLE FRACTIONS

 CH3             3.302-10
 CH2OH           1.284-15
 CH4             1.9604-2
 CH3OH           8.573-10
 *CO             1.2606-1
 *CO2            2.6693-2
 COOH            5.286-14
 C2H2,acetylene  9.709-11
 CH2CO,ketene    5.624-10
 CH3CN           7.5486-9
 CH3CO,acetyl    5.190-15
 C2H4            5.5845-8
 CH3CHO,ethanal  1.116-10
 CH3COOH         4.707-12
 C2H5            6.133-14
 C2H6            1.2823-7
 C2H5OH          1.305-13
 C2N2            7.579-16
 C3H4,allene     1.852-14
 C3H4,propyne    7.134-14
 C3H5,allyl      6.207-16
 C3H6,propylene  1.353-11
 C3H6,cyclo-     5.015-15
 C3H6O,acetone   3.805-14
 C3H6O,propanal  2.214-15
 C3H8            3.591-12
 C3O2            7.368-16
 C4H6,butadiene  6.064-16
 C4H8,1-butene   3.576-16
 C4H8,cis2-buten 2.866-16
 C4H8,tr2-butene 3.326-16
 C4H8,isobutene  5.234-16
 C6H6            7.107-16
 *H              3.316-10
 HCN             1.0925-6
 HCO             2.003-12
 HNC             8.698-10
 HNCO            4.5112-8
 *H2             3.3779-1
 HCHO,formaldehy 2.5459-8
 HCOOH           7.0529-9
 H2O             4.0238-2
 NH2             1.298-13
 NH3             1.0721-4
 *N2             4.1316-1
 *OH             7.645-14
 C(gr)           3.6341-2

  * THERMODYNAMIC PROPERTIES FITTED TO 20000.K









         THERMODYNAMIC EQUILIBRIUM COMBUSTION PROPERTIES AT ASSIGNED

                                   PRESSURES

 CASE =                

             REACTANT                       MOLES         ENERGY      TEMP
                                                         KJ/KG-MOL      K
 FUEL        CH4                          1.0000000    -74533.907    300.000
 OXIDANT     O2                           2.0000000        54.358    300.000
 OXIDANT     N2                           7.5238000        53.881    300.000

 O/F=    4.39163  %FUEL= 18.547273  R,EQ.RATIO= 3.900000  PHI,EQ.RATIO= 3.900000

 THERMODYNAMIC PROPERTIES

 P, BAR            1.0000
 T, K              947.52
 RHO, KG/CU M    2.4237-1
 H, KJ/KG         -860.19
 U, KJ/KG        -1272.78
 G, KJ/KG        -11727.2
 S, KJ/(KG)(K)    11.4689

 M, (1/n)          19.094
 MW, MOL WT        18.280
 (dLV/dLP)t      -1.04990
 (dLV/dLT)p        1.8085
 Cp, KJ/(KG)(K)    7.8921
 GAMMAs            1.1502
 SON VEL,M/SEC      688.9

 MOLE FRACTIONS

 CH3             3.097-10
 CH2OH           1.195-15
 CH4             2.0823-2
 CH3OH           8.864-10
 *CO             1.2087-1
 *CO2            2.7022-2
 COOH            4.898-14
 C2H2,acetylene  8.657-11
 CH2CO,ketene    5.287-10
 CH3CN           7.3666-9
 CH3CO,acetyl    4.811-15
 C2H4            5.5481-8
 CH3CHO,ethanal  1.133-10
 CH3COOH         4.991-12
 C2H5            5.923-14
 C2H6            1.3875-7
 C2H5OH          1.390-13
 C2N2            6.346-16
 C3H4,allene     1.708-14
 C3H4,propyne    6.603-14
 C3H5,allyl      5.843-16
 C3H6,propylene  1.386-11
 C3H6,cyclo-     5.047-15
 C3H6O,acetone   4.019-14
 C3H6O,propanal  2.295-15
 C3H8            3.977-12
 C3O2            6.360-16
 C4H6,butadiene  5.901-16
 C4H8,1-butene   3.748-16
 C4H8,cis2-buten 3.020-16
 C4H8,tr2-butene 3.507-16
 C4H8,isobutene  5.534-16
 C4H10,n-butane  1.110-16
 C6H6            7.041-16
 *H              2.947-10
 HCN             1.0146-6
 HCO             1.784-12
 HNC             7.817-10
 HNCO            4.3534-8
 *H2             3.3902-1
 HCHO,formaldehy 2.4731-8
 HCOOH           7.1730-9
 H2O             4.1856-2
 NH2             1.178-13
 NH3             1.1093-4
 *N2             4.0767-1
 *OH             6.815-14
 C(gr)           4.2634-2

  * THERMODYNAMIC PROPERTIES FITTED TO 20000.K









         THERMODYNAMIC EQUILIBRIUM COMBUSTION PROPERTIES AT ASSIGNED

                                   PRESSURES

 CASE =                

             REACTANT                       MOLES         ENERGY      TEMP
                                                         KJ/KG-MOL      K
 FUEL        CH4                          1.0000000    -74533.907    300.000
 OXIDANT     O2                           2.0000000        54.358    300.000
 OXIDANT     N2                           7.5238000        53.881    300.000

 O/F=    4.28184  %FUEL= 18.932806  R,EQ.RATIO= 4.000000  PHI,EQ.RATIO= 4.000000

 THERMODYNAMIC PROPERTIES

 P, BAR            1.0000
 T, K              943.69
 RHO, KG/CU M    2.4287-1
 H, KJ/KG         -878.11
 U, KJ/KG        -1289.86
 G, KJ/KG        -11716.6
 S, KJ/(KG)(K)    11.4852

 M, (1/n)          19.056
 MW, MOL WT        18.129
 (dLV/dLP)t      -1.05084
 (dLV/dLT)p        1.8209
 Cp, KJ/(KG)(K)    7.9989
 GAMMAs            1.1495
 SON VEL,M/SEC      688.0

 MOLE FRACTIONS

 CH3             2.906-10
 CH2OH           1.112-15
 CH4             2.2075-2
 CH3OH           9.142-10
 *CO             1.1589-1
 *CO2            2.7303-2
 COOH            4.537-14
 C2H2,acetylene  7.734-11
 CH2CO,ketene    4.970-10
 CH3CN           7.1884-9
 CH3CO,acetyl    4.461-15
 C2H4            5.5085-8
 CH3CHO,ethanal  1.147-10
 CH3COOH         5.274-12
 C2H5            5.720-14
 C2H6            1.4972-7
 C2H5OH          1.476-13
 C2N2            5.333-16
 C3H4,allene     1.577-14
 C3H4,propyne    6.115-14
 C3H5,allyl      5.501-16
 C3H6,propylene  1.417-11
 C3H6,cyclo-     5.072-15
 C3H6O,acetone   4.232-14
 C3H6O,propanal  2.373-15
 C3H8            4.390-12
 C3O2            5.497-16
 C4H6,butadiene  5.740-16
 C4H8,1-butene   3.919-16
 C4H8,cis2-buten 3.173-16
 C4H8,tr2-butene 3.687-16
 C4H8,isobutene  5.836-16
 C4H10,n-butane  1.253-16
 C6H6            6.968-16
 *H              2.624-10
 HCN             9.4357-7
 HCO             1.591-12
 HNC             7.039-10
 HNCO            4.1999-8
 *H2             3.4012-1
 HCHO,formaldehy 2.4008-8
 HCOOH           7.2778-9
 H2O             4.3453-2
 NH2             1.071-13
 NH3             1.1464-4
 *N2             4.0237-1
 *OH             6.084-14
 C(gr)           4.8679-2

  * THERMODYNAMIC PROPERTIES FITTED TO 20000.K



