
 *******************************************************************************

         NASA-GLENN CHEMICAL EQUILIBRIUM PROGRAM CEA2, MAY 21, 2004
                   BY  BONNIE MCBRIDE AND SANFORD GORDON
      REFS: NASA RP-1311, PART I, 1994 AND NASA RP-1311, PART II, 1996

 *******************************************************************************



 problem    phi,eq.ratio=3.7,3.8,3.9,4,
       hp   p,bar=1,  t,k=3800
 react
   fuel=H2 moles=1 t,k=300
   oxid=O2 moles=0.5 t,k=300
   oxid=N2 moles=1.8810 t,k=300
 output
      trace=1e-16 siunits short
 end




         THERMODYNAMIC EQUILIBRIUM COMBUSTION PROPERTIES AT ASSIGNED

                                   PRESSURES

 CASE =                

             REACTANT                       MOLES         ENERGY      TEMP
                                                         KJ/KG-MOL      K
 FUEL        H2                           1.0000000        53.359    300.000
 OXIDANT     O2                           0.5000000        54.358    300.000
 OXIDANT     N2                           1.8810000        53.881    300.000

 O/F=    9.20966  %FUEL=  9.794646  R,EQ.RATIO= 3.700000  PHI,EQ.RATIO= 3.700000

 THERMODYNAMIC PROPERTIES

 P, BAR            1.0000
 T, K             1617.39
 RHO, KG/CU M    1.0146-1
 H, KJ/KG          4.2805
 U, KJ/KG         -981.30
 G, KJ/KG        -26573.4
 S, KJ/(KG)(K)    16.4325

 M, (1/n)          13.645
 (dLV/dLP)t      -1.00002
 (dLV/dLT)p        1.0004
 Cp, KJ/(KG)(K)    2.6770
 GAMMAs            1.2950
 SON VEL,M/SEC     1129.7

 MOLE FRACTIONS

 *H              4.5424-5
 HNO             1.909-12
 HNO2            1.212-15
 HO2             9.921-15
 *H2             4.8374-1
 H2O             1.7918-1
 H2O2            2.123-13
 *N              5.715-13
 *NH             1.319-11
 NH2             2.3927-9
 NH3             8.7664-6
 NH2OH           3.693-14
 *NO             8.9354-9
 NO2             2.267-16
 *N2             3.3703-1
 N2H2            2.412-14
 N2O             3.483-13
 *O              5.351-11
 *OH             8.0683-7
 *O2             9.026-12

  * THERMODYNAMIC PROPERTIES FITTED TO 20000.K









         THERMODYNAMIC EQUILIBRIUM COMBUSTION PROPERTIES AT ASSIGNED

                                   PRESSURES

 CASE =                

             REACTANT                       MOLES         ENERGY      TEMP
                                                         KJ/KG-MOL      K
 FUEL        H2                           1.0000000        53.359    300.000
 OXIDANT     O2                           0.5000000        54.358    300.000
 OXIDANT     N2                           1.8810000        53.881    300.000

 O/F=    8.96730  %FUEL= 10.032807  R,EQ.RATIO= 3.800000  PHI,EQ.RATIO= 3.800000

 THERMODYNAMIC PROPERTIES

 P, BAR            1.0000
 T, K             1598.02
 RHO, KG/CU M    1.0115-1
 H, KJ/KG          4.3391
 U, KJ/KG         -984.26
 G, KJ/KG        -26525.4
 S, KJ/(KG)(K)    16.6017

 M, (1/n)          13.440
 (dLV/dLP)t      -1.00002
 (dLV/dLT)p        1.0004
 Cp, KJ/(KG)(K)    2.7051
 GAMMAs            1.2968
 SON VEL,M/SEC     1132.2

 MOLE FRACTIONS

 *H              3.7421-5
 HNO             1.344-12
 HNO2            7.696-16
 HO2             5.885-15
 *H2             4.9283-1
 H2O             1.7602-1
 H2O2            1.455-13
 *N              3.679-13
 *NH             9.563-12
 NH2             2.0472-9
 NH3             9.3996-6
 NH2OH           3.039-14
 *NO             6.2741-9
 NO2             1.289-16
 *N2             3.3110-1
 N2H2            2.001-14
 N2O             2.435-13
 *O              3.273-11
 *OH             6.0680-7
 *O2             5.342-12

  * THERMODYNAMIC PROPERTIES FITTED TO 20000.K









         THERMODYNAMIC EQUILIBRIUM COMBUSTION PROPERTIES AT ASSIGNED

                                   PRESSURES

 CASE =                

             REACTANT                       MOLES         ENERGY      TEMP
                                                         KJ/KG-MOL      K
 FUEL        H2                           1.0000000        53.359    300.000
 OXIDANT     O2                           0.5000000        54.358    300.000
 OXIDANT     N2                           1.8810000        53.881    300.000

 O/F=    8.73737  %FUEL= 10.269714  R,EQ.RATIO= 3.900000  PHI,EQ.RATIO= 3.900000

 THERMODYNAMIC PROPERTIES

 P, BAR            1.0000
 T, K             1579.20
 RHO, KG/CU M    1.0085-1
 H, KJ/KG          4.3973
 U, KJ/KG         -987.14
 G, KJ/KG        -26477.9
 S, KJ/(KG)(K)    16.7695

 M, (1/n)          13.242
 (dLV/dLP)t      -1.00002
 (dLV/dLT)p        1.0003
 Cp, KJ/(KG)(K)    2.7330
 GAMMAs            1.2985
 SON VEL,M/SEC     1134.7

 MOLE FRACTIONS

 *H              3.0847-5
 HNO             9.484-13
 HNO2            4.907-16
 HO2             3.507-15
 *H2             5.0161-1
 H2O             1.7298-1
 H2O2            1.000-13
 *N              2.374-13
 *NH             6.944-12
 NH2             1.7517-9
 NH3             1.0063-5
 NH2OH           2.503-14
 *NO             4.4188-9
 *N2             3.2537-1
 N2H2            1.661-14
 N2O             1.708-13
 *O              2.009-11
 *OH             4.5732-7
 *O2             3.178-12

  * THERMODYNAMIC PROPERTIES FITTED TO 20000.K









         THERMODYNAMIC EQUILIBRIUM COMBUSTION PROPERTIES AT ASSIGNED

                                   PRESSURES

 CASE =                

             REACTANT                       MOLES         ENERGY      TEMP
                                                         KJ/KG-MOL      K
 FUEL        H2                           1.0000000        53.359    300.000
 OXIDANT     O2                           0.5000000        54.358    300.000
 OXIDANT     N2                           1.8810000        53.881    300.000

 O/F=    8.51894  %FUEL= 10.505377  R,EQ.RATIO= 4.000000  PHI,EQ.RATIO= 4.000000

 THERMODYNAMIC PROPERTIES

 P, BAR            1.0000
 T, K             1560.91
 RHO, KG/CU M    1.0057-1
 H, KJ/KG          4.4553
 U, KJ/KG         -989.92
 G, KJ/KG        -26430.7
 S, KJ/(KG)(K)    16.9358

 M, (1/n)          13.052
 (dLV/dLP)t      -1.00002
 (dLV/dLT)p        1.0003
 Cp, KJ/(KG)(K)    2.7609
 GAMMAs            1.3001
 SON VEL,M/SEC     1137.0

 MOLE FRACTIONS

 *H              2.5444-5
 HNO             6.710-13
 HNO2            3.141-16
 HO2             2.099-15
 *H2             5.1009-1
 H2O             1.7004-1
 H2O2            6.897-14
 *N              1.535-13
 *NH             5.049-12
 NH2             1.4989-9
 NH3             1.0758-5
 NH2OH           2.064-14
 *NO             3.1212-9
 *N2             3.1984-1
 N2H2            1.379-14
 N2O             1.202-13
 *O              1.238-11
 *OH             3.4537-7
 *O2             1.899-12

  * THERMODYNAMIC PROPERTIES FITTED TO 20000.K



