
 *******************************************************************************

         NASA-GLENN CHEMICAL EQUILIBRIUM PROGRAM CEA2, MAY 21, 2004
                   BY  BONNIE MCBRIDE AND SANFORD GORDON
      REFS: NASA RP-1311, PART I, 1994 AND NASA RP-1311, PART II, 1996

 *******************************************************************************



 problem    phi,eq.ratio=3.7,3.8,3.9,4,
       hp   p,bar=1,  t,k=3800
 react
   fuel=H2 moles=1 t,k=300
   oxid=O2 moles=0.5 t,k=300
 output
      trace=1e-16 siunits short
 end




         THERMODYNAMIC EQUILIBRIUM COMBUSTION PROPERTIES AT ASSIGNED

                                   PRESSURES

 CASE =                

             REACTANT                       MOLES         ENERGY      TEMP
                                                         KJ/KG-MOL      K
 FUEL        H2                           1.0000000        53.359    300.000
 OXIDANT     O2                           0.5000000        54.358    300.000

 O/F=    2.14505  %FUEL= 31.796003  R,EQ.RATIO= 3.700000  PHI,EQ.RATIO= 3.700000

 THERMODYNAMIC PROPERTIES

 P, BAR            1.0000
 T, K             2155.83
 RHO, KG/CU M    3.5301-2
 H, KJ/KG          9.5748
 U, KJ/KG        -2823.21
 G, KJ/KG        -73897.2
 S, KJ/(KG)(K)    34.2823

 M, (1/n)           6.328
 (dLV/dLP)t      -1.00098
 (dLV/dLT)p        1.0253
 Cp, KJ/(KG)(K)    7.1165
 GAMMAs            1.2393
 SON VEL,M/SEC     1873.7

 MOLE FRACTIONS

 *H              3.7270-3
 HO2             1.585-10
 *H2             7.2653-1
 H2O             2.6954-1
 H2O2            2.601-10
 *O              6.4722-7
 *OH             2.0169-4
 *O2             1.0167-7

  * THERMODYNAMIC PROPERTIES FITTED TO 20000.K









         THERMODYNAMIC EQUILIBRIUM COMBUSTION PROPERTIES AT ASSIGNED

                                   PRESSURES

 CASE =                

             REACTANT                       MOLES         ENERGY      TEMP
                                                         KJ/KG-MOL      K
 FUEL        H2                           1.0000000        53.359    300.000
 OXIDANT     O2                           0.5000000        54.358    300.000

 O/F=    2.08860  %FUEL= 32.377121  R,EQ.RATIO= 3.800000  PHI,EQ.RATIO= 3.800000

 THERMODYNAMIC PROPERTIES

 P, BAR            1.0000
 T, K             2120.75
 RHO, KG/CU M    3.5254-2
 H, KJ/KG          9.7188
 U, KJ/KG        -2826.84
 G, KJ/KG        -73566.1
 S, KJ/(KG)(K)    34.6933

 M, (1/n)           6.216
 (dLV/dLP)t      -1.00080
 (dLV/dLT)p        1.0208
 Cp, KJ/(KG)(K)    7.0584
 GAMMAs            1.2448
 SON VEL,M/SEC     1879.1

 MOLE FRACTIONS

 *H              3.0375-3
 HO2             9.240-11
 *H2             7.3422-1
 H2O             2.6259-1
 H2O2            1.749-10
 *O              3.9076-7
 *OH             1.5007-4
 *O2             5.9396-8

  * THERMODYNAMIC PROPERTIES FITTED TO 20000.K









         THERMODYNAMIC EQUILIBRIUM COMBUSTION PROPERTIES AT ASSIGNED

                                   PRESSURES

 CASE =                

             REACTANT                       MOLES         ENERGY      TEMP
                                                         KJ/KG-MOL      K
 FUEL        H2                           1.0000000        53.359    300.000
 OXIDANT     O2                           0.5000000        54.358    300.000

 O/F=    2.03505  %FUEL= 32.948420  R,EQ.RATIO= 3.900000  PHI,EQ.RATIO= 3.900000

 THERMODYNAMIC PROPERTIES

 P, BAR            1.0000
 T, K             2086.54
 RHO, KG/CU M    3.5221-2
 H, KJ/KG          9.8603
 U, KJ/KG        -2829.33
 G, KJ/KG        -73217.7
 S, KJ/(KG)(K)    35.0953

 M, (1/n)           6.110
 (dLV/dLP)t      -1.00065
 (dLV/dLT)p        1.0171
 Cp, KJ/(KG)(K)    7.0162
 GAMMAs            1.2500
 SON VEL,M/SEC     1883.9

 MOLE FRACTIONS

 *H              2.4709-3
 HO2             5.380-11
 *H2             7.4145-1
 H2O             2.5597-1
 H2O2            1.175-10
 *O              2.3542-7
 *OH             1.1154-4
 *O2             3.4671-8

  * THERMODYNAMIC PROPERTIES FITTED TO 20000.K









         THERMODYNAMIC EQUILIBRIUM COMBUSTION PROPERTIES AT ASSIGNED

                                   PRESSURES

 CASE =                

             REACTANT                       MOLES         ENERGY      TEMP
                                                         KJ/KG-MOL      K
 FUEL        H2                           1.0000000        53.359    300.000
 OXIDANT     O2                           0.5000000        54.358    300.000

 O/F=    1.98417  %FUEL= 33.510148  R,EQ.RATIO= 4.000000  PHI,EQ.RATIO= 4.000000

 THERMODYNAMIC PROPERTIES

 P, BAR            1.0000
 T, K             2053.22
 RHO, KG/CU M    3.5202-2
 H, KJ/KG          9.9994
 U, KJ/KG        -2830.79
 G, KJ/KG        -72855.5
 S, KJ/(KG)(K)    35.4883

 M, (1/n)           6.009
 (dLV/dLP)t      -1.00052
 (dLV/dLT)p        1.0140
 Cp, KJ/(KG)(K)    6.9879
 GAMMAs            1.2548
 SON VEL,M/SEC     1888.0

 MOLE FRACTIONS

 *H              2.0072-3
 HO2             3.131-11
 *H2             7.4825-1
 H2O             2.4966-1
 H2O2            7.898-11
 *O              1.4163-7
 *OH             8.2854-5
 *O2             2.0235-8

  * THERMODYNAMIC PROPERTIES FITTED TO 20000.K



