*******************************************************************************

         NASA-GLENN CHEMICAL EQUILIBRIUM PROGRAM CEA2, FEBRUARY 5, 2004
                   BY  BONNIE MCBRIDE AND SANFORD GORDON
      REFS: NASA RP-1311, PART I, 1994 AND NASA RP-1311, PART II, 1996

 *******************************************************************************



  
 ### CEA analysis performed on Mon 11-Jul-2022 13:29:47
  
 # Problem Type: "Combustion at Assigned Volume"
  
 prob case=test___________5469 uv
  
 # Density (1 value):
 rho,kg/m**3= 1.1137
  
 # Equivalence based on Fuel/Oxid. wt ratio (Eq 9.19*) (1 value):
 phi= 1.3
  
 # You selected the following fuels and oxidizers:
 reac
 fuel CH4              mole=100.0000  t,k= 300.000
 oxid Air              mole=100.0000  t,k= 300.000
  
 # You selected these options for output:
 # short version of output
 output short
 # Proportions of any products will be expressed as Mole Fractions.
 # Heat will be expressed as siunits
 output siunits
 # Trace variable:
 output trace=1e-16
  
 # Input prepared by this script:/var/www/sites/cearun.grc.nasa.gov/cgi-bin/CEARU
 N/prepareInputFile.cgi
  
 ### IMPORTANT:  The following line is the end of your CEA input file!
 end




         THERMODYNAMIC EQUILIBRIUM COMBUSTION PROPERTIES AT ASSIGNED

                                     VOLUME

 CASE = test___________

             REACTANT                       MOLES         ENERGY      TEMP
                                                         KJ/KG-MOL      K
 FUEL        CH4                        100.0000000    -77028.260    300.000
 OXIDANT     Air                        100.0000000     -2566.042    300.000

 O/F=   13.26040  %FUEL=  7.012425  R,EQ.RATIO= 1.299544  PHI,EQ.RATIO= 1.300000

 THERMODYNAMIC PROPERTIES

 P, BAR            8.8784
 T, K             2486.14
 RHO, KG/CU M    1.1137 0
 H, KJ/KG          378.12
 U, KJ/KG         -419.08
 G, KJ/KG        -24009.3
 S, KJ/(KG)(K)     9.8094

 M, (1/n)          25.930
 (dLV/dLP)t      -1.00101
 (dLV/dLT)p        1.0262
 Cp, KJ/(KG)(K)    1.8097
 GAMMAs            1.2279
 SON VEL,M/SEC      989.4

 MOLE FRACTIONS

 *Ar             7.7956-3
 *C              4.892-14
 *CH             3.650-14
 CH2             3.742-13
 CH3             5.075-12
 CH2OH           5.722-13
 CH3O            9.189-14
 CH4             7.209-12
 CH3OH           1.441-13
 *CN             8.503-11
 *CO             6.5022-2
 *CO2            4.8585-2
 COOH            1.0422-7
 C2H2,acetylene  4.122-15
 CH2CO,ketene    8.580-14
 O(CH)2O         4.130-16
 HO(CO)2OH       1.906-16
 OCCN            1.200-14
 C2N2            4.642-16
 C2O             4.860-14
 C3O2            2.436-16
 *H              1.5938-3
 HCN             3.8482-8
 HCO             1.3253-7
 HCCO            8.212-15
 HNC             4.0263-9
 HNCO            5.0346-8
 HNO             9.1281-8
 HNO2            4.9528-9
 HNO3            4.465-14
 HO2             8.5286-8
 *H2             4.0194-2
 HCHO,formaldehy 9.4454-9
 HCOOH           3.9863-8
 H2O             1.8487-1
 H2O2            3.2549-8
 *N              6.9419-8
 NCO             1.2709-9
 *NH             5.6575-8
 NH2             9.8501-8
 NH3             6.1299-7
 NH2OH           2.570-11
 *NO             3.8098-4
 NO2             1.9315-8
 NO3             2.658-15
 *N2             6.4980-1
 N2O             5.9324-8
 NCN             3.451-15
 N2H2            8.756-12
 N2H4            6.491-16
 N3              5.568-13
 N3H             5.402-13
 *O              3.8876-5
 *OH             1.6473-3
 *O2             7.3407-5
 O3              6.572-13

  * THERMODYNAMIC PROPERTIES FITTED TO 20000.K

