*******************************************************************************

         NASA-GLENN CHEMICAL EQUILIBRIUM PROGRAM CEA2, FEBRUARY 5, 2004
                   BY  BONNIE MCBRIDE AND SANFORD GORDON
      REFS: NASA RP-1311, PART I, 1994 AND NASA RP-1311, PART II, 1996

 *******************************************************************************



  
 ### CEA analysis performed on Mon 11-Jul-2022 13:28:44
  
 # Problem Type: "Combustion at Assigned Volume"
  
 prob case=test___________5469 uv
  
 # Density (1 value):
 rho,kg/m**3= 1.1269
  
 # Equivalence based on Fuel/Oxid. wt ratio (Eq 9.19*) (1 value):
 phi= 1
  
 # You selected the following fuels and oxidizers:
 reac
 fuel CH4              mole=100.0000  t,k= 300.000
 oxid Air              mole=100.0000  t,k= 300.000
  
 # You selected these options for output:
 # short version of output
 output short
 # Proportions of any products will be expressed as Mole Fractions.
 # Heat will be expressed as siunits
 output siunits
 # Trace variable:
 output trace=1e-16
  
 # Input prepared by this script:/var/www/sites/cearun.grc.nasa.gov/cgi-bin/CEARU
 N/prepareInputFile.cgi
  
 ### IMPORTANT:  The following line is the end of your CEA input file!
 end




         THERMODYNAMIC EQUILIBRIUM COMBUSTION PROPERTIES AT ASSIGNED

                                     VOLUME

 CASE = test___________

             REACTANT                       MOLES         ENERGY      TEMP
                                                         KJ/KG-MOL      K
 FUEL        CH4                        100.0000000    -77028.260    300.000
 OXIDANT     Air                        100.0000000     -2566.042    300.000

 O/F=   17.23852  %FUEL=  5.482900  R,EQ.RATIO= 1.000000  PHI,EQ.RATIO= 1.000000

 THERMODYNAMIC PROPERTIES

 P, BAR            8.8638
 T, K             2586.54
 RHO, KG/CU M    1.1269 0
 H, KJ/KG          439.57
 U, KJ/KG         -347.00
 G, KJ/KG        -24042.9
 S, KJ/(KG)(K)     9.4653

 M, (1/n)          27.341
 (dLV/dLP)t      -1.00462
 (dLV/dLT)p        1.1194
 Cp, KJ/(KG)(K)    2.4928
 GAMMAs            1.1740
 SON VEL,M/SEC      961.0

 MOLE FRACTIONS

 *Ar             8.3553-3
 *C              6.159-15
 *CH             1.421-15
 CH2             3.815-15
 CH3             1.272-14
 CH2OH           1.058-14
 CH3O            1.849-15
 CH4             4.715-15
 CH3OH           7.342-16
 *CN             6.482-12
 *CO             1.7088-2
 *CO2            7.6642-2
 COOH            8.9655-8
 CH2CO,ketene    1.267-16
 OCCN            1.972-16
 C2O             9.005-16
 *H              9.5702-4
 HCN             6.493-10
 HCO             1.8085-8
 HNC             7.628-11
 HNCO            5.3212-9
 HNO             4.5290-7
 HNO2            1.7661-7
 HNO3            1.463-11
 HO2             3.4303-6
 *H2             6.1306-3
 HCHO,formaldehy 3.782-10
 HCOOH           9.9752-9
 H2O             1.7682-1
 H2O2            3.8639-7
 *N              1.7736-7
 NCO             5.560-10
 *NH             4.4692-8
 NH2             2.1968-8
 NH3             3.4069-8
 NH2OH           1.466-11
 *NO             4.7073-3
 NO2             2.1689-6
 NO3             3.280-12
 *N2             6.9430-1
 N2O             7.5746-7
 NCN             3.127-16
 N2H2            2.159-12
 NH2NO2          1.214-16
 N2O3            1.285-13
 N3              1.419-12
 N3H             4.101-13
 *O              6.3390-4
 *OH             6.9101-3
 *O2             7.4448-3
 O3              9.010-10

  * THERMODYNAMIC PROPERTIES FITTED TO 20000.K




