*******************************************************************************

         NASA-GLENN CHEMICAL EQUILIBRIUM PROGRAM CEA2, FEBRUARY 5, 2004
                   BY  BONNIE MCBRIDE AND SANFORD GORDON
      REFS: NASA RP-1311, PART I, 1994 AND NASA RP-1311, PART II, 1996

 *******************************************************************************



  
 ### CEA analysis performed on Mon 11-Jul-2022 13:42:32
  
 # Problem Type: "Combustion at Assigned Volume"
  
 prob case=test___________6313 uv
  
 # Density (1 value):
 rho,kg/m**3= 1.0480
  
 # Equivalence based on Fuel/Oxid. wt ratio (Eq 9.19*) (1 value):
 phi= 3.1
  
 # You selected the following fuels and oxidizers:
 reac
 fuel CH4              mole=100.0000  t,k= 300.000
 oxid Air              mole=100.0000  t,k= 300.000
  
 # You selected these options for output:
 # short version of output
 output short
 # Proportions of any products will be expressed as Mole Fractions.
 # Heat will be expressed as siunits
 output siunits
 # Trace variable:
 output trace=1e-16
  
 # Input prepared by this script:/var/www/sites/cearun.grc.nasa.gov/cgi-bin/CEARU
 N/prepareInputFile.cgi
  
 ### IMPORTANT:  The following line is the end of your CEA input file!
 end




         THERMODYNAMIC EQUILIBRIUM COMBUSTION PROPERTIES AT ASSIGNED

                                     VOLUME

 CASE = test___________

             REACTANT                       MOLES         ENERGY      TEMP
                                                         KJ/KG-MOL      K
 FUEL        CH4                        100.0000000    -77028.260    300.000
 OXIDANT     Air                        100.0000000     -2566.042    300.000

 O/F=    5.56081  %FUEL= 15.242012  R,EQ.RATIO= 3.096807  PHI,EQ.RATIO= 3.100000

 THERMODYNAMIC PROPERTIES

 P, BAR            5.4518
 T, K             1215.09
 RHO, KG/CU M    1.0480 0
 H, KJ/KG         -286.72
 U, KJ/KG         -806.94
 G, KJ/KG        -13577.5
 S, KJ/(KG)(K)    10.9381

 M, (1/n)          19.421
 (dLV/dLP)t      -1.00515
 (dLV/dLT)p        1.0591
 Cp, KJ/(KG)(K)    2.0728
 GAMMAs            1.2929
 SON VEL,M/SEC      820.1

 MOLE FRACTIONS

 *Ar             5.3220-3
 CH2             6.206-16
 CH3             5.1128-9
 CH2OH           2.042-13
 CH3O            4.610-15
 CH4             1.3360-3
 CH3OH           1.6488-9
 *CN             1.317-15
 *CO             1.6872-1
 *CO2            1.4639-2
 COOH            8.596-12
 C2H2,acetylene  1.1707-9
 CH2CO,ketene    2.9528-9
 O(CH)2O         3.365-15
 C2H3,vinyl      9.952-15
 CH3CN           4.7504-9
 CH3CO,acetyl    1.661-13
 C2H4            2.0228-8
 CH3CHO,ethanal  9.424-11
 CH3COOH         2.802-12
 C2H5            2.830-13
 C2H6            4.6214-9
 C2H5OH          7.405-14
 C2N2            1.135-13
 C3H3,2-propynl  8.113-16
 C3H4,allene     5.283-14
 C3H4,propyne    1.704-13
 C3H5,allyl      1.814-15
 C3H6,propylene  1.418-12
 C3H6,cyclo-     1.310-15
 C3H6O,acetone   5.431-15
 C3H6O,propanal  8.465-16
 C3H8            5.339-14
 C3O2            4.379-14
 C4H6,butadiene  1.497-16
 *H              6.3754-8
 HCN             6.5784-6
 HCO             3.712-10
 HCCO            1.130-15
 HNC             2.9216-8
 HNCO            2.5361-7
 HNO             1.135-16
 *H2             3.2572-1
 HCHO,formaldehy 1.4788-7
 HCOOH           2.6644-8
 H2O             4.0454-2
 NCO             7.161-15
 *NH             1.896-15
 NH2             4.668-11
 NH3             1.2084-4
 NH2OH           3.548-16
 *NO             3.302-13
 *N2             4.4368-1
 N2H2            7.246-16
 N2H4            1.260-16
 *OH             8.394-11

  * THERMODYNAMIC PROPERTIES FITTED TO 20000.K

