 *******************************************************************************

         NASA-GLENN CHEMICAL EQUILIBRIUM PROGRAM CEA2, FEBRUARY 5, 2004
                   BY  BONNIE MCBRIDE AND SANFORD GORDON
      REFS: NASA RP-1311, PART I, 1994 AND NASA RP-1311, PART II, 1996

 *******************************************************************************



  
 ### CEA analysis performed on Mon 11-Jul-2022 13:44:19
  
 # Problem Type: "Combustion at Assigned Volume"
  
 prob case=test___________6313 uv
  
 # Density (1 value):
 rho,kg/m**3= 1.0329
  
 # Equivalence based on Fuel/Oxid. wt ratio (Eq 9.19*) (1 value):
 phi= 3.6
  
 # You selected the following fuels and oxidizers:
 reac
 fuel CH4              mole=100.0000  t,k= 300.000
 oxid Air              mole=100.0000  t,k= 300.000
  
 # You selected these options for output:
 # short version of output
 output short
 # Proportions of any products will be expressed as Mole Fractions.
 # Heat will be expressed as siunits
 output siunits
 # Trace variable:
 output trace=1e-16
  
 # Input prepared by this script:/var/www/sites/cearun.grc.nasa.gov/cgi-bin/CEARU
 N/prepareInputFile.cgi
  
 ### IMPORTANT:  The following line is the end of your CEA input file!
 end




         THERMODYNAMIC EQUILIBRIUM COMBUSTION PROPERTIES AT ASSIGNED

                                     VOLUME

 CASE = test___________

             REACTANT                       MOLES         ENERGY      TEMP
                                                         KJ/KG-MOL      K
 FUEL        CH4                        100.0000000    -77028.260    300.000
 OXIDANT     Air                        100.0000000     -2566.042    300.000

 O/F=    4.78848  %FUEL= 17.275697  R,EQ.RATIO= 3.596047  PHI,EQ.RATIO= 3.600000

 THERMODYNAMIC PROPERTIES

 P, BAR            4.9454
 T, K             1093.07
 RHO, KG/CU M    1.0329 0
 H, KJ/KG         -423.99
 U, KJ/KG         -902.78
 G, KJ/KG        -12503.8
 S, KJ/(KG)(K)    11.0513

 M, (1/n)          18.982
 (dLV/dLP)t      -1.04072
 (dLV/dLT)p        1.5297
 Cp, KJ/(KG)(K)    4.8596
 GAMMAs            1.2051
 SON VEL,M/SEC      759.6

 MOLE FRACTIONS

 *Ar             5.0770-3
 CH3             6.6525-9
 CH2OH           7.270-14
 CH3O            1.119-15
 CH4             2.0787-2
 CH3OH           4.6823-9
 *CO             1.6913-1
 *CO2            1.4659-2
 COOH            1.169-12
 C2H2,acetylene  3.5460-9
 CH2CO,ketene    8.7517-9
 O(CH)2O         2.579-15
 C2H3,vinyl      1.444-14
 CH3CN           8.3806-8
 CH3CO,acetyl    3.191-13
 C2H4            4.5610-7
 C2H4O,ethylen-o 2.648-16
 CH3CHO,ethanal  1.0563-9
 CH3COOH         2.509-11
 C2H5            3.081-12
 C2H6            4.7780-7
 C2H5OH          1.761-12
 CH3OCH3         1.172-15
 C2N2            1.190-13
 C3H3,2-propynl  4.609-15
 C3H4,allene     1.469-12
 C3H4,propyne    5.095-12
 C3H5,allyl      6.706-14
 C3H6,propylene  2.705-10
 C3H6,cyclo-     1.725-13
 C3H6O,acetone   6.397-13
 C3H6O,propanal  6.684-14
 C3H7,n-propyl   2.287-16
 C3H7,i-propyl   3.362-16
 C3H8            4.042-11
 C3H8O,1propanol 1.440-16
 C3H8O,2propanol 2.571-16
 C3O2            5.340-14
 C4H6,butadiene  5.699-14
 C4H6,1butyne    4.538-16
 C4H6,2butyne    1.157-15
 C4H8,1-butene   2.152-14
 C4H8,cis2-buten 1.463-14
 C4H8,tr2-butene 1.672-14
 C4H8,isobutene  2.403-14
 C4H10,n-butane  3.369-15
 C4H10,isobutane 1.639-15
 C5H6,1,3cyclo-  5.431-16
 C6H6            3.496-14
 *H              5.7957-9
 HCN             9.0876-6
 HCO             6.865-11
 HCCO            2.703-16
 HNC             2.0190-8
 HNCO            2.5206-7
 *H2             3.3790-1
 HCHO,formaldehy 1.4849-7
 HCOOH           2.2065-8
 H2O             2.9024-2
 NCO             4.423-16
 NH2             5.887-12
 NH3             2.0948-4
 *NO             5.458-15
 *N2             4.2320-1
 *OH             2.664-12

  * THERMODYNAMIC PROPERTIES FITTED TO 20000.K

