 *******************************************************************************

         NASA-GLENN CHEMICAL EQUILIBRIUM PROGRAM CEA2, FEBRUARY 5, 2004
                   BY  BONNIE MCBRIDE AND SANFORD GORDON
      REFS: NASA RP-1311, PART I, 1994 AND NASA RP-1311, PART II, 1996

 *******************************************************************************



  
 ### CEA analysis performed on Mon 11-Jul-2022 13:05:11
  
 # Problem Type: "Assigned Temperature and Volume (or Density)"
  
 prob case=test___________5469 tv
  
 # Temperature (1 value):
 t,k= 3000
 # Density (1 value):
 rho,kg/m**3= 1.0388
  
 # Equivalence based on Fuel/Oxid. wt ratio (Eq 9.19*) (1 value):
 phi= 3.4
  
 # You selected the following fuels and oxidizers:
 reac
 fuel CH4              mole=100.0000  t,k= 300.000
 oxid Air              mole=100.0000  t,k= 300.000
  
 # You selected these options for output:
 # short version of output
 output short
 # Proportions of any products will be expressed as Mole Fractions.
 # Heat will be expressed as siunits
 output siunits
 # Trace variable:
 output trace=1e-16
  
 # Input prepared by this script:/var/www/sites/cearun.grc.nasa.gov/cgi-bin/CEARU
 N/prepareInputFile.cgi
  
 ### IMPORTANT:  The following line is the end of your CEA input file!
 end




               THERMODYNAMIC EQUILIBRIUM PROPERTIES AT ASSIGNED

                            TEMPERATURE AND VOLUME

 CASE = test___________

             REACTANT                       MOLES         ENERGY      TEMP
                                                         KJ/KG-MOL      K
 FUEL        CH4                        100.0000000    -77028.260    300.000
 OXIDANT     Air                        100.0000000     -2566.042    300.000

 O/F=    5.07015  %FUEL= 16.474048  R,EQ.RATIO= 3.396351  PHI,EQ.RATIO= 3.400000

 THERMODYNAMIC PROPERTIES

 P, BAR            14.067
 T, K             3000.00
 RHO, KG/CU M    1.0388 0
 H, KJ/KG         3697.77
 U, KJ/KG         2343.60
 G, KJ/KG        -34303.4
 S, KJ/(KG)(K)    12.6671

 M, (1/n)          18.420
 (dLV/dLP)t      -1.00633
 (dLV/dLT)p        1.1170
 Cp, KJ/(KG)(K)    3.0097
 GAMMAs            1.2207
 SON VEL,M/SEC     1285.7

 MOLE FRACTIONS

 *Ar             4.9744-3
 *C              9.210-10
 *CH             8.971-10
 CH2             5.7239-9
 CH3             3.6998-8
 CH2OH           1.673-10
 CH3O            3.956-11
 CH4             3.3114-8
 CH3OH           3.343-11
 *CN             1.5285-7
 CNN             1.297-13
 *CO             1.8700-1
 *CO2            2.2887-3
 COOH            7.8145-8
 *C2             1.451-13
 C2H             1.741-11
 C2H2,acetylene  1.3708-9
 C2H2,vinylidene 4.324-12
 CH2CO,ketene    4.412-10
 O(CH)2O         9.448-14
 C2H3,vinyl      7.500-13
 CH3CN           7.776-13
 CH3CO,acetyl    4.130-13
 C2H4            1.098-12
 CH3CHO,ethanal  2.608-14
 CH3COOH         4.161-16
 C2H5            1.055-15
 C2H6            1.675-16
 CCN             9.048-16
 CNC             8.878-14
 OCCN            4.150-11
 C2N2            2.557-11
 C2O             3.286-10
 *C3             3.719-16
 C3H3,2-propynl  8.598-16
 C3O2            8.939-13
 *H              2.4416-2
 HCN             2.0654-5
 HCO             4.8976-6
 HCCN            3.183-15
 HCCO            7.629-11
 HNC             3.5966-6
 HNCO            5.2935-7
 HNO             8.2207-8
 HNO2            1.587-10
 HNO3            1.530-16
 HO2             5.3117-9
 *H2             3.3529-1
 HCHO,formaldehy 3.6314-7
 HCOOH           2.9958-8
 H2O             3.0373-2
 H2O2            2.1502-9
 *N              2.3886-6
 NCO             3.0478-8
 *NH             2.5283-6
 NH2             3.8465-6
 NH3             1.2062-5
 NH2OH           8.872-11
 *NO             8.1687-5
 NO2             4.215-10
 *N2             4.1469-1
 N2O             1.2928-8
 NCN             1.163-11
 N2H2            4.739-10
 N2H4            1.632-13
 N3              1.450-11
 N3H             1.555-11
 *O              3.2605-5
 *OH             7.9572-4
 *O2             1.1680-6
 O3              6.368-15

  * THERMODYNAMIC PROPERTIES FITTED TO 20000.K

