*******************************************************************************

         NASA-GLENN CHEMICAL EQUILIBRIUM PROGRAM CEA2, FEBRUARY 5, 2004
                   BY  BONNIE MCBRIDE AND SANFORD GORDON
      REFS: NASA RP-1311, PART I, 1994 AND NASA RP-1311, PART II, 1996

 *******************************************************************************



  
 ### CEA analysis performed on Mon 11-Jul-2022 13:00:33
  
 # Problem Type: "Assigned Temperature and Volume (or Density)"
  
 prob case=test___________5469 tv
  
 # Temperature (1 value):
 t,k= 3000
 # Density (1 value):
 rho,kg/m**3= 1.0747
  
 # Equivalence based on Fuel/Oxid. wt ratio (Eq 9.19*) (1 value):
 phi= 2.3
  
 # You selected the following fuels and oxidizers:
 reac
 fuel CH4              mole=100.0000  t,k= 300.000
 oxid Air              mole=100.0000  t,k= 300.000
  
 # You selected these options for output:
 # short version of output
 output short
 # Proportions of any products will be expressed as Mole Fractions.
 # Heat will be expressed as siunits
 output siunits
 # Trace variable:
 output trace=1e-16
  
 # Input prepared by this script:/var/www/sites/cearun.grc.nasa.gov/cgi-bin/CEARU
 N/prepareInputFile.cgi
  
 ### IMPORTANT:  The following line is the end of your CEA input file!
 end




               THERMODYNAMIC EQUILIBRIUM PROPERTIES AT ASSIGNED

                            TEMPERATURE AND VOLUME

 CASE = test___________

             REACTANT                       MOLES         ENERGY      TEMP
                                                         KJ/KG-MOL      K
 FUEL        CH4                        100.0000000    -77028.260    300.000
 OXIDANT     Air                        100.0000000     -2566.042    300.000

 O/F=    7.49501  %FUEL= 11.771617  R,EQ.RATIO= 2.298023  PHI,EQ.RATIO= 2.300000

 THERMODYNAMIC PROPERTIES

 P, BAR            12.511
 T, K             3000.00
 RHO, KG/CU M    1.0747 0
 H, KJ/KG         2564.35
 U, KJ/KG         1400.26
 G, KJ/KG        -31818.3
 S, KJ/(KG)(K)    11.4609

 M, (1/n)          21.427
 (dLV/dLP)t      -1.00624
 (dLV/dLT)p        1.1205
 Cp, KJ/(KG)(K)    2.7330
 GAMMAs            1.2078
 SON VEL,M/SEC     1185.7

 MOLE FRACTIONS

 *Ar             6.1124-3
 *C              1.296-10
 *CH             9.210-11
 CH2             4.288-10
 CH3             2.0226-9
 CH2OH           5.121-11
 CH3O            1.211-11
 CH4             1.3210-9
 CH3OH           7.468-12
 *CN             2.2476-8
 CNN             1.994-14
 *CO             1.4733-1
 *CO2            1.0098-2
 COOH            2.5160-7
 *C2             2.555-15
 C2H             2.237-13
 C2H2,acetylene  1.285-11
 C2H2,vinylidene 4.053-14
 CH2CO,ketene    2.316-11
 O(CH)2O         2.777-14
 HO(CO)2OH       1.509-16
 C2H3,vinyl      5.130-15
 CH3CN           5.559-15
 CH3CO,acetyl    1.582-14
 C2H4            5.480-15
 CH3CHO,ethanal  7.291-16
 CNC             1.633-15
 OCCN            4.276-12
 C2N2            4.917-13
 C2O             3.240-11
 C3O2            6.174-14
 *H              2.0034-2
 HCN             2.2162-6
 HCO             2.8157-6
 HCCO            5.488-12
 HNC             3.8591-7
 HNCO            3.1808-7
 HNO             3.9481-7
 HNO2            4.2691-9
 HNO3            2.304-14
 HO2             1.3668-7
 *H2             2.0076-1
 HCHO,formaldehy 1.5235-7
 HCOOH           7.0385-8
 H2O             1.0184-1
 H2O2            4.0377-8
 *N              2.8071-6
 NCO             2.5097-8
 *NH             2.1683-6
 NH2             2.4072-6
 NH3             5.5084-6
 NH2OH           2.269-10
 *NO             5.3761-4
 NO2             1.5536-8
 NO3             2.816-15
 *N2             5.0936-1
 N2O             8.8927-8
 NCN             1.788-12
 N2H2            3.099-10
 N2H4            5.685-14
 N2O3            1.288-16
 N3              1.861-11
 N3H             1.456-11
 *O              2.0531-4
 *OH             3.6564-3
 *O2             4.1188-5
 O3              1.258-12

  * THERMODYNAMIC PROPERTIES FITTED TO 20000.K



