*******************************************************************************

         NASA-GLENN CHEMICAL EQUILIBRIUM PROGRAM CEA2, FEBRUARY 5, 2004
                   BY  BONNIE MCBRIDE AND SANFORD GORDON
      REFS: NASA RP-1311, PART I, 1994 AND NASA RP-1311, PART II, 1996

 *******************************************************************************



  
 ### CEA analysis performed on Mon 11-Jul-2022 12:51:22
  
 # Problem Type: "Assigned Temperature and Volume (or Density)"
  
 prob case=test___________5469 tv
  
 # Temperature (1 value):
 t,k= 3000
 # Density (1 value):
 rho,kg/m**3= 1.1180
  
 # Equivalence based on Fuel/Oxid. wt ratio (Eq 9.19*) (1 value):
 phi= 1.2
  
 # You selected the following fuels and oxidizers:
 reac
 fuel CH4              mole=100.0000  t,k= 300.000
 oxid Air              mole=100.0000  t,k= 300.000
  
 # You selected these options for output:
 # short version of output
 output short
 # Proportions of any products will be expressed as Mole Fractions.
 # Heat will be expressed as siunits
 output siunits
 # Trace variable:
 output trace=1e-16
  
 # Input prepared by this script:/var/www/sites/cearun.grc.nasa.gov/cgi-bin/CEARU
 N/prepareInputFile.cgi
  
 ### IMPORTANT:  The following line is the end of your CEA input file!
 end




               THERMODYNAMIC EQUILIBRIUM PROPERTIES AT ASSIGNED

                            TEMPERATURE AND VOLUME

 CASE = test___________

             REACTANT                       MOLES         ENERGY      TEMP
                                                         KJ/KG-MOL      K
 FUEL        CH4                        100.0000000    -77028.260    300.000
 OXIDANT     Air                        100.0000000     -2566.042    300.000

 O/F=   14.36544  %FUEL=  6.508114  R,EQ.RATIO= 1.199696  PHI,EQ.RATIO= 1.200000

 THERMODYNAMIC PROPERTIES

 P, BAR            10.761
 T, K             3000.00
 RHO, KG/CU M    1.1180 0
 H, KJ/KG         1539.00
 U, KJ/KG          576.48
 G, KJ/KG        -28613.6
 S, KJ/(KG)(K)    10.0509

 M, (1/n)          25.915
 (dLV/dLP)t      -1.01139
 (dLV/dLT)p        1.2458
 Cp, KJ/(KG)(K)    3.3283
 GAMMAs            1.1604
 SON VEL,M/SEC     1056.8

 MOLE FRACTIONS

 *Ar             7.8335-3
 *C              5.248-12
 *CH             1.374-12
 CH2             2.358-12
 CH3             4.098-12
 CH2OH           1.073-12
 CH3O            2.537-13
 CH4             9.863-13
 CH3OH           5.764-14
 *CN             9.536-10
 CNN             8.861-16
 *CO             6.1688-2
 *CO2            4.3709-2
 COOH            4.0127-7
 C2H             1.163-16
 C2H2,acetylene  2.462-15
 CH2CO,ketene    4.586-14
 O(CH)2O         5.686-16
 HO(CO)2OH       3.303-16
 OCCN            6.533-14
 C2N2            7.613-16
 C2O             4.726-13
 C3O2            3.244-16
 *H              8.5822-3
 HCN             3.4645-8
 HCO             4.3441-7
 HCCO            2.950-14
 HNC             6.0328-9
 HNCO            5.1403-8
 HNO             1.8314-6
 HNO2            2.0472-7
 HNO3            1.142-11
 HO2             6.2573-6
 *H2             3.1688-2
 HCHO,formaldehy 8.6606-9
 HCOOH           4.1363-8
 H2O             1.6618-1
 H2O2            6.8109-7
 *N              3.4184-6
 NCO             1.1007-8
 *NH             9.7294-7
 NH2             3.9800-7
 NH3             3.3559-7
 NH2OH           1.429-10
 *NO             6.7680-3
 NO2             2.0219-6
 NO3             3.788-12
 *N2             6.4975-1
 N2O             1.1727-6
 NCN             7.946-14
 N2H2            5.368-11
 NH2NO2          5.737-16
 N2H4            1.337-15
 N2O3            1.815-13
 N3              2.486-11
 N3H             7.171-12
 *O              2.4675-3
 *OH             1.6192-2
 *O2             5.1173-3
 O3              1.6152-9

  * THERMODYNAMIC PROPERTIES FITTED TO 20000.K


