
 *******************************************************************************

         NASA-GLENN CHEMICAL EQUILIBRIUM PROGRAM CEA2, MAY 21, 2004
                   BY  BONNIE MCBRIDE AND SANFORD GORDON
      REFS: NASA RP-1311, PART I, 1994 AND NASA RP-1311, PART II, 1996

 *******************************************************************************



 problem    phi,eq.ratio=2.1,2.2,2.3,2.4,2.5,2.6,2.7,2.8,2.9,3,3.1,3.2,3.3,3.4,3.
 5,3.6,
       hp   p,bar=1,  t,k=3800
 react
   fuel=CO moles=1 t,k=300
   oxid=O2 moles=0.5 t,k=300
 output
      trace=1e-16 siunits short
 end




         THERMODYNAMIC EQUILIBRIUM COMBUSTION PROPERTIES AT ASSIGNED

                                   PRESSURES

 CASE =                

             REACTANT                       MOLES         ENERGY      TEMP
                                                         KJ/KG-MOL      K
 FUEL        CO                           1.0000000   -110481.283    300.000
 OXIDANT     O2                           0.5000000        54.358    300.000

 O/F=    0.27200  %FUEL= 78.616320  R,EQ.RATIO= 1.354839  PHI,EQ.RATIO= 2.100000

 THERMODYNAMIC PROPERTIES

 P, BAR            1.0000
 T, K             2880.13
 RHO, KG/CU M    1.4375-1
 H, KJ/KG        -3100.53
 U, KJ/KG        -3796.16
 G, KJ/KG        -28411.9
 S, KJ/(KG)(K)     8.7883

 M, (1/n)          34.425
 (dLV/dLP)t      -1.02493
 (dLV/dLT)p        1.5626
 Cp, KJ/(KG)(K)    4.4335
 GAMMAs            1.1212
 SON VEL,M/SEC      883.1

 MOLE FRACTIONS

 *C              1.838-11
 *CO             5.6260-1
 *CO2            4.0360-1
 C2O             2.334-12
 C3O2            2.079-15
 *O              1.1109-2
 *O2             2.2694-2
 O3              3.4732-9

  * THERMODYNAMIC PROPERTIES FITTED TO 20000.K









         THERMODYNAMIC EQUILIBRIUM COMBUSTION PROPERTIES AT ASSIGNED

                                   PRESSURES

 CASE =                

             REACTANT                       MOLES         ENERGY      TEMP
                                                         KJ/KG-MOL      K
 FUEL        CO                           1.0000000   -110481.283    300.000
 OXIDANT     O2                           0.5000000        54.358    300.000

 O/F=    0.25964  %FUEL= 79.387959  R,EQ.RATIO= 1.375000  PHI,EQ.RATIO= 2.200000

 THERMODYNAMIC PROPERTIES

 P, BAR            1.0000
 T, K             2859.73
 RHO, KG/CU M    1.4438-1
 H, KJ/KG        -3130.98
 U, KJ/KG        -3823.59
 G, KJ/KG        -28261.7
 S, KJ/(KG)(K)     8.7878

 M, (1/n)          34.330
 (dLV/dLP)t      -1.02105
 (dLV/dLT)p        1.4786
 Cp, KJ/(KG)(K)    4.0013
 GAMMAs            1.1252
 SON VEL,M/SEC      882.8

 MOLE FRACTIONS

 *C              1.651-11
 *CO             5.7559-1
 *CO2            3.9742-1
 C2O             2.350-12
 C3O2            2.310-15
 *O              9.1307-3
 *O2             1.7864-2
 O3              2.3085-9

  * THERMODYNAMIC PROPERTIES FITTED TO 20000.K









         THERMODYNAMIC EQUILIBRIUM COMBUSTION PROPERTIES AT ASSIGNED

                                   PRESSURES

 CASE =                

             REACTANT                       MOLES         ENERGY      TEMP
                                                         KJ/KG-MOL      K
 FUEL        CO                           1.0000000   -110481.283    300.000
 OXIDANT     O2                           0.5000000        54.358    300.000

 O/F=    0.24835  %FUEL= 80.105848  R,EQ.RATIO= 1.393939  PHI,EQ.RATIO= 2.300000

 THERMODYNAMIC PROPERTIES

 P, BAR            1.0000
 T, K             2836.57
 RHO, KG/CU M    1.4514-1
 H, KJ/KG        -3159.31
 U, KJ/KG        -3848.30
 G, KJ/KG        -28083.6
 S, KJ/(KG)(K)     8.7868

 M, (1/n)          34.231
 (dLV/dLP)t      -1.01727
 (dLV/dLT)p        1.3959
 Cp, KJ/(KG)(K)    3.5698
 GAMMAs            1.1303
 SON VEL,M/SEC      882.5

 MOLE FRACTIONS

 *C              1.443-11
 *CO             5.8808-1
 *CO2            3.9087-1
 C2O             2.331-12
 C3O2            2.556-15
 *O              7.3264-3
 *O2             1.3718-2
 O3              1.4676-9

  * THERMODYNAMIC PROPERTIES FITTED TO 20000.K









         THERMODYNAMIC EQUILIBRIUM COMBUSTION PROPERTIES AT ASSIGNED

                                   PRESSURES

 CASE =                

             REACTANT                       MOLES         ENERGY      TEMP
                                                         KJ/KG-MOL      K
 FUEL        CO                           1.0000000   -110481.283    300.000
 OXIDANT     O2                           0.5000000        54.358    300.000

 O/F=    0.23800  %FUEL= 80.775414  R,EQ.RATIO= 1.411765  PHI,EQ.RATIO= 2.400000

 THERMODYNAMIC PROPERTIES

 P, BAR            1.0000
 T, K             2810.18
 RHO, KG/CU M    1.4605-1
 H, KJ/KG        -3185.73
 U, KJ/KG        -3870.44
 G, KJ/KG        -27874.1
 S, KJ/(KG)(K)     8.7853

 M, (1/n)          34.124
 (dLV/dLP)t      -1.01368
 (dLV/dLT)p        1.3165
 Cp, KJ/(KG)(K)    3.1495
 GAMMAs            1.1369
 SON VEL,M/SEC      882.3

 MOLE FRACTIONS

 *C              1.222-11
 *CO             6.0019-1
 *CO2            3.8389-1
 C2O             2.275-12
 C3O2            2.820-15
 *O              5.7089-3
 *O2             1.0217-2
 O3              8.835-10

  * THERMODYNAMIC PROPERTIES FITTED TO 20000.K









         THERMODYNAMIC EQUILIBRIUM COMBUSTION PROPERTIES AT ASSIGNED

                                   PRESSURES

 CASE =                

             REACTANT                       MOLES         ENERGY      TEMP
                                                         KJ/KG-MOL      K
 FUEL        CO                           1.0000000   -110481.283    300.000
 OXIDANT     O2                           0.5000000        54.358    300.000

 O/F=    0.22848  %FUEL= 81.401377  R,EQ.RATIO= 1.428571  PHI,EQ.RATIO= 2.500000

 THERMODYNAMIC PROPERTIES

 P, BAR            1.0000
 T, K             2780.09
 RHO, KG/CU M    1.4713-1
 H, KJ/KG        -3210.43
 U, KJ/KG        -3890.09
 G, KJ/KG        -27629.1
 S, KJ/(KG)(K)     8.7834

 M, (1/n)          34.010
 (dLV/dLP)t      -1.01038
 (dLV/dLT)p        1.2430
 Cp, KJ/(KG)(K)    2.7534
 GAMMAs            1.1452
 SON VEL,M/SEC      882.2

 MOLE FRACTIONS

 *C              9.976-12
 *CO             6.1198-1
 *CO2            3.7640-1
 C2O             2.182-12
 C3O2            3.106-15
 *O              4.2939-3
 *O2             7.3303-3
 O3              4.976-10

  * THERMODYNAMIC PROPERTIES FITTED TO 20000.K









         THERMODYNAMIC EQUILIBRIUM COMBUSTION PROPERTIES AT ASSIGNED

                                   PRESSURES

 CASE =                

             REACTANT                       MOLES         ENERGY      TEMP
                                                         KJ/KG-MOL      K
 FUEL        CO                           1.0000000   -110481.283    300.000
 OXIDANT     O2                           0.5000000        54.358    300.000

 O/F=    0.21969  %FUEL= 81.987863  R,EQ.RATIO= 1.444444  PHI,EQ.RATIO= 2.600000

 THERMODYNAMIC PROPERTIES

 P, BAR            1.0000
 T, K             2745.83
 RHO, KG/CU M    1.4843-1
 H, KJ/KG        -3233.57
 U, KJ/KG        -3907.31
 G, KJ/KG        -27344.9
 S, KJ/(KG)(K)     8.7811

 M, (1/n)          33.886
 (dLV/dLP)t      -1.00750
 (dLV/dLT)p        1.1779
 Cp, KJ/(KG)(K)    2.3958
 GAMMAs            1.1555
 SON VEL,M/SEC      882.3

 MOLE FRACTIONS

 *C              7.803-12
 *CO             6.2354-1
 *CO2            3.6833-1
 C2O             2.052-12
 C3O2            3.417-15
 *O              3.0973-3
 *O2             5.0306-3
 O3              2.591-10

  * THERMODYNAMIC PROPERTIES FITTED TO 20000.K









         THERMODYNAMIC EQUILIBRIUM COMBUSTION PROPERTIES AT ASSIGNED

                                   PRESSURES

 CASE =                

             REACTANT                       MOLES         ENERGY      TEMP
                                                         KJ/KG-MOL      K
 FUEL        CO                           1.0000000   -110481.283    300.000
 OXIDANT     O2                           0.5000000        54.358    300.000

 O/F=    0.21156  %FUEL= 82.538490  R,EQ.RATIO= 1.459459  PHI,EQ.RATIO= 2.700000

 THERMODYNAMIC PROPERTIES

 P, BAR            1.0000
 T, K             2707.13
 RHO, KG/CU M    1.4995-1
 H, KJ/KG        -3255.30
 U, KJ/KG        -3922.18
 G, KJ/KG        -27019.1
 S, KJ/(KG)(K)     8.7782

 M, (1/n)          33.752
 (dLV/dLP)t      -1.00513
 (dLV/dLT)p        1.1234
 Cp, KJ/(KG)(K)    2.0904
 GAMMAs            1.1677
 SON VEL,M/SEC      882.4

 MOLE FRACTIONS

 *C              5.820-12
 *CO             6.3492-1
 *CO2            3.5967-1
 C2O             1.888-12
 C3O2            3.760-15
 *O              2.1308-3
 *O2             3.2822-3
 O3              1.234-10

  * THERMODYNAMIC PROPERTIES FITTED TO 20000.K









         THERMODYNAMIC EQUILIBRIUM COMBUSTION PROPERTIES AT ASSIGNED

                                   PRESSURES

 CASE =                

             REACTANT                       MOLES         ENERGY      TEMP
                                                         KJ/KG-MOL      K
 FUEL        CO                           1.0000000   -110481.283    300.000
 OXIDANT     O2                           0.5000000        54.358    300.000

 O/F=    0.20400  %FUEL= 83.056451  R,EQ.RATIO= 1.473684  PHI,EQ.RATIO= 2.800000

 THERMODYNAMIC PROPERTIES

 P, BAR            1.0000
 T, K             2664.14
 RHO, KG/CU M    1.5173-1
 H, KJ/KG        -3275.74
 U, KJ/KG        -3934.82
 G, KJ/KG        -26653.4
 S, KJ/(KG)(K)     8.7749

 M, (1/n)          33.609
 (dLV/dLP)t      -1.00331
 (dLV/dLT)p        1.0809
 Cp, KJ/(KG)(K)    1.8467
 GAMMAs            1.1809
 SON VEL,M/SEC      882.2

 MOLE FRACTIONS

 *C              4.129-12
 *CO             6.4611-1
 *CO2            3.5046-1
 C2O             1.699-12
 C3O2            4.139-15
 *O              1.3946-3
 *O2             2.0307-3
 O3              5.350-11

  * THERMODYNAMIC PROPERTIES FITTED TO 20000.K









         THERMODYNAMIC EQUILIBRIUM COMBUSTION PROPERTIES AT ASSIGNED

                                   PRESSURES

 CASE =                

             REACTANT                       MOLES         ENERGY      TEMP
                                                         KJ/KG-MOL      K
 FUEL        CO                           1.0000000   -110481.283    300.000
 OXIDANT     O2                           0.5000000        54.358    300.000

 O/F=    0.19697  %FUEL= 83.544569  R,EQ.RATIO= 1.487179  PHI,EQ.RATIO= 2.900000

 THERMODYNAMIC PROPERTIES

 P, BAR            1.0000
 T, K             2617.57
 RHO, KG/CU M    1.5373-1
 H, KJ/KG        -3295.00
 U, KJ/KG        -3945.48
 G, KJ/KG        -26254.0
 S, KJ/(KG)(K)     8.7711

 M, (1/n)          33.458
 (dLV/dLP)t      -1.00202
 (dLV/dLT)p        1.0503
 Cp, KJ/(KG)(K)    1.6665
 GAMMAs            1.1940
 SON VEL,M/SEC      881.3

 MOLE FRACTIONS

 *C              2.793-12
 *CO             6.5708-1
 *CO2            3.4085-1
 C2O             1.495-12
 C3O2            4.557-15
 *O              8.7075-4
 *O2             1.1949-3
 O3              2.124-11

  * THERMODYNAMIC PROPERTIES FITTED TO 20000.K









         THERMODYNAMIC EQUILIBRIUM COMBUSTION PROPERTIES AT ASSIGNED

                                   PRESSURES

 CASE =                

             REACTANT                       MOLES         ENERGY      TEMP
                                                         KJ/KG-MOL      K
 FUEL        CO                           1.0000000   -110481.283    300.000
 OXIDANT     O2                           0.5000000        54.358    300.000

 O/F=    0.19040  %FUEL= 84.005350  R,EQ.RATIO= 1.500000  PHI,EQ.RATIO= 3.000000

 THERMODYNAMIC PROPERTIES

 P, BAR            1.0000
 T, K             2568.63
 RHO, KG/CU M    1.5594-1
 H, KJ/KG        -3313.18
 U, KJ/KG        -3954.47
 G, KJ/KG        -25832.0
 S, KJ/(KG)(K)     8.7669

 M, (1/n)          33.303
 (dLV/dLP)t      -1.00118
 (dLV/dLT)p        1.0300
 Cp, KJ/(KG)(K)    1.5427
 GAMMAs            1.2056
 SON VEL,M/SEC      879.3

 MOLE FRACTIONS

 *C              1.814-12
 *CO             6.6774-1
 *CO2            3.3106-1
 C2O             1.292-12
 C3O2            5.014-15
 *O              5.2282-4
 *O2             6.7464-4
 O3              7.843-12

  * THERMODYNAMIC PROPERTIES FITTED TO 20000.K









         THERMODYNAMIC EQUILIBRIUM COMBUSTION PROPERTIES AT ASSIGNED

                                   PRESSURES

 CASE =                

             REACTANT                       MOLES         ENERGY      TEMP
                                                         KJ/KG-MOL      K
 FUEL        CO                           1.0000000   -110481.283    300.000
 OXIDANT     O2                           0.5000000        54.358    300.000

 O/F=    0.18426  %FUEL= 84.441029  R,EQ.RATIO= 1.512195  PHI,EQ.RATIO= 3.100000

 THERMODYNAMIC PROPERTIES

 P, BAR            1.0000
 T, K             2518.71
 RHO, KG/CU M    1.5829-1
 H, KJ/KG        -3330.37
 U, KJ/KG        -3962.13
 G, KJ/KG        -25399.7
 S, KJ/(KG)(K)     8.7621

 M, (1/n)          33.149
 (dLV/dLP)t      -1.00067
 (dLV/dLT)p        1.0173
 Cp, KJ/(KG)(K)    1.4627
 GAMMAs            1.2148
 SON VEL,M/SEC      876.0

 MOLE FRACTIONS

 *C              1.143-12
 *CO             6.7801-1
 *CO2            3.2132-1
 C2O             1.100-12
 C3O2            5.509-15
 *O              3.0524-4
 *O2             3.6996-4
 O3              2.752-12

  * THERMODYNAMIC PROPERTIES FITTED TO 20000.K









         THERMODYNAMIC EQUILIBRIUM COMBUSTION PROPERTIES AT ASSIGNED

                                   PRESSURES

 CASE =                

             REACTANT                       MOLES         ENERGY      TEMP
                                                         KJ/KG-MOL      K
 FUEL        CO                           1.0000000   -110481.283    300.000
 OXIDANT     O2                           0.5000000        54.358    300.000

 O/F=    0.17850  %FUEL= 84.853603  R,EQ.RATIO= 1.523810  PHI,EQ.RATIO= 3.200000

 THERMODYNAMIC PROPERTIES

 P, BAR            1.0000
 T, K             2469.00
 RHO, KG/CU M    1.6074-1
 H, KJ/KG        -3346.66
 U, KJ/KG        -3968.78
 G, KJ/KG        -24967.7
 S, KJ/(KG)(K)     8.7570

 M, (1/n)          32.998
 (dLV/dLP)t      -1.00037
 (dLV/dLT)p        1.0098
 Cp, KJ/(KG)(K)    1.4130
 GAMMAs            1.2217
 SON VEL,M/SEC      871.8

 MOLE FRACTIONS

 *C              7.063-13
 *CO             6.8782-1
 *CO2            3.1181-1
 C2O             9.272-13
 C3O2            6.040-15
 *O              1.7519-4
 *O2             1.9939-4
 O3              9.371-13

  * THERMODYNAMIC PROPERTIES FITTED TO 20000.K









         THERMODYNAMIC EQUILIBRIUM COMBUSTION PROPERTIES AT ASSIGNED

                                   PRESSURES

 CASE =                

             REACTANT                       MOLES         ENERGY      TEMP
                                                         KJ/KG-MOL      K
 FUEL        CO                           1.0000000   -110481.283    300.000
 OXIDANT     O2                           0.5000000        54.358    300.000

 O/F=    0.17309  %FUEL= 85.244861  R,EQ.RATIO= 1.534884  PHI,EQ.RATIO= 3.300000

 THERMODYNAMIC PROPERTIES

 P, BAR            1.0000
 T, K             2420.34
 RHO, KG/CU M    1.6325-1
 H, KJ/KG        -3362.09
 U, KJ/KG        -3974.66
 G, KJ/KG        -24543.5
 S, KJ/(KG)(K)     8.7514

 M, (1/n)          32.852
 (dLV/dLP)t      -1.00021
 (dLV/dLT)p        1.0055
 Cp, KJ/(KG)(K)    1.3826
 GAMMAs            1.2268
 SON VEL,M/SEC      866.9

 MOLE FRACTIONS

 *C              4.313-13
 *CO             6.9714-1
 *CO2            3.0265-1
 C2O             7.762-13
 C3O2            6.604-15
 *O              9.9677-5
 *O2             1.0659-4
 O3              3.146-13

  * THERMODYNAMIC PROPERTIES FITTED TO 20000.K









         THERMODYNAMIC EQUILIBRIUM COMBUSTION PROPERTIES AT ASSIGNED

                                   PRESSURES

 CASE =                

             REACTANT                       MOLES         ENERGY      TEMP
                                                         KJ/KG-MOL      K
 FUEL        CO                           1.0000000   -110481.283    300.000
 OXIDANT     O2                           0.5000000        54.358    300.000

 O/F=    0.16800  %FUEL= 85.616415  R,EQ.RATIO= 1.545455  PHI,EQ.RATIO= 3.400000

 THERMODYNAMIC PROPERTIES

 P, BAR            1.0000
 T, K             2373.20
 RHO, KG/CU M    1.6578-1
 H, KJ/KG        -3376.76
 U, KJ/KG        -3979.96
 G, KJ/KG        -24131.7
 S, KJ/(KG)(K)     8.7455

 M, (1/n)          32.712
 (dLV/dLP)t      -1.00011
 (dLV/dLT)p        1.0031
 Cp, KJ/(KG)(K)    1.3639
 GAMMAs            1.2306
 SON VEL,M/SEC      861.6

 MOLE FRACTIONS

 *C              2.617-13
 *CO             7.0597-1
 *CO2            2.9391-1
 C2O             6.469-13
 C3O2            7.201-15
 *O              5.6550-5
 *O2             5.6864-5
 O3              1.053-13

  * THERMODYNAMIC PROPERTIES FITTED TO 20000.K









         THERMODYNAMIC EQUILIBRIUM COMBUSTION PROPERTIES AT ASSIGNED

                                   PRESSURES

 CASE =                

             REACTANT                       MOLES         ENERGY      TEMP
                                                         KJ/KG-MOL      K
 FUEL        CO                           1.0000000   -110481.283    300.000
 OXIDANT     O2                           0.5000000        54.358    300.000

 O/F=    0.16320  %FUEL= 85.969715  R,EQ.RATIO= 1.555556  PHI,EQ.RATIO= 3.500000

 THERMODYNAMIC PROPERTIES

 P, BAR            1.0000
 T, K             2327.80
 RHO, KG/CU M    1.6833-1
 H, KJ/KG        -3390.70
 U, KJ/KG        -3984.77
 G, KJ/KG        -23734.2
 S, KJ/(KG)(K)     8.7393

 M, (1/n)          32.579
 (dLV/dLP)t      -1.00006
 (dLV/dLT)p        1.0017
 Cp, KJ/(KG)(K)    1.3521
 GAMMAs            1.2336
 SON VEL,M/SEC      856.1

 MOLE FRACTIONS

 *C              1.584-13
 *CO             7.1433-1
 *CO2            2.8560-1
 C2O             5.378-13
 C3O2            7.830-15
 *O              3.2102-5
 *O2             3.0390-5
 O3              3.535-14

  * THERMODYNAMIC PROPERTIES FITTED TO 20000.K









         THERMODYNAMIC EQUILIBRIUM COMBUSTION PROPERTIES AT ASSIGNED

                                   PRESSURES

 CASE =                

             REACTANT                       MOLES         ENERGY      TEMP
                                                         KJ/KG-MOL      K
 FUEL        CO                           1.0000000   -110481.283    300.000
 OXIDANT     O2                           0.5000000        54.358    300.000

 O/F=    0.15867  %FUEL= 86.306076  R,EQ.RATIO= 1.565217  PHI,EQ.RATIO= 3.600000

 THERMODYNAMIC PROPERTIES

 P, BAR            1.0000
 T, K             2284.22
 RHO, KG/CU M    1.7088-1
 H, KJ/KG        -3403.97
 U, KJ/KG        -3989.19
 G, KJ/KG        -23351.8
 S, KJ/(KG)(K)     8.7329

 M, (1/n)          32.453
 (dLV/dLP)t      -1.00003
 (dLV/dLT)p        1.0010
 Cp, KJ/(KG)(K)    1.3443
 GAMMAs            1.2360
 SON VEL,M/SEC      850.5

 MOLE FRACTIONS

 *C              9.588-14
 *CO             7.2225-1
 *CO2            2.7772-1
 C2O             4.463-13
 C3O2            8.490-15
 *O              1.8273-5
 *O2             1.6304-5
 O3              1.195-14

  * THERMODYNAMIC PROPERTIES FITTED TO 20000.K



