
 *******************************************************************************

         NASA-GLENN CHEMICAL EQUILIBRIUM PROGRAM CEA2, MAY 21, 2004
                   BY  BONNIE MCBRIDE AND SANFORD GORDON
      REFS: NASA RP-1311, PART I, 1994 AND NASA RP-1311, PART II, 1996

 *******************************************************************************



 problem    phi,eq.ratio=0.5,0.6,0.7,0.8,0.9,1,1.1,1.2,1.3,1.4,1.5,1.6,1.7,1.8,1.
 9,2,
     hp   p,bar=1,  t,k=3800
 react
   fuel=CH4 moles=0.85  t,k=300
   oxid=O2 moles=2.3  t,k=300
   fuel=C2H6 moles=0.1  t,k=300
   fuel=C3H8 moles=0.05  t,k=300
 output  short   trace=1e-16
 end




         THERMODYNAMIC EQUILIBRIUM COMBUSTION PROPERTIES AT ASSIGNED

                                   PRESSURES

 CASE =                

             REACTANT                       MOLES         ENERGY      TEMP
                                                         KJ/KG-MOL      K
 FUEL        CH4                          0.8500000    -74533.907    300.000
 OXIDANT     O2                           2.3000000        54.358    300.000
 FUEL        C2H6                         0.1000000    -83754.210    300.000
 FUEL        C3H8                         0.0500000   -104543.521    300.000

 O/F=    7.80965  %FUEL= 11.351192  R,EQ.RATIO= 0.500000  PHI,EQ.RATIO= 0.500000

 THERMODYNAMIC PROPERTIES

 P, BAR            1.0000
 T, K             2863.76
 RHO, KG/CU M    1.1241-1
 H, KJ/KG         -461.97
 U, KJ/KG        -1351.55
 G, KJ/KG        -32043.3
 S, KJ/(KG)(K)    11.0279

 M, (1/n)          26.766
 (dLV/dLP)t      -1.03441
 (dLV/dLT)p        1.7670
 Cp, KJ/(KG)(K)    7.0984
 GAMMAs            1.1139
 SON VEL,M/SEC      995.4

 MOLE FRACTIONS

 *C              3.188-13
 *CH             2.101-14
 CH2             1.077-14
 CH3             5.938-15
 CH2OH           5.479-15
 CH3O            1.182-15
 CH4             4.228-16
 *CO             4.7640-2
 *CO2            1.4580-1
 COOH            1.8952-7
 C2O             3.687-15
 *H              1.1854-2
 HCO             4.9872-8
 HO2             8.6621-5
 *H2             1.3490-2
 HCHO,formaldehy 2.634-10
 HCOOH           5.2177-9
 H2O             2.9349-1
 H2O2            2.4899-6
 *O              4.1760-2
 *OH             8.3374-2
 *O2             3.6250-1
 O3              2.1310-7

  * THERMODYNAMIC PROPERTIES FITTED TO 20000.K









         THERMODYNAMIC EQUILIBRIUM COMBUSTION PROPERTIES AT ASSIGNED

                                   PRESSURES

 CASE =                

             REACTANT                       MOLES         ENERGY      TEMP
                                                         KJ/KG-MOL      K
 FUEL        CH4                          0.8500000    -74533.907    300.000
 OXIDANT     O2                           2.3000000        54.358    300.000
 FUEL        C2H6                         0.1000000    -83754.210    300.000
 FUEL        C3H8                         0.0500000   -104543.521    300.000

 O/F=    6.50804  %FUEL= 13.319057  R,EQ.RATIO= 0.600000  PHI,EQ.RATIO= 0.600000

 THERMODYNAMIC PROPERTIES

 P, BAR            1.0000
 T, K             2936.65
 RHO, KG/CU M    1.0468-1
 H, KJ/KG         -542.35
 U, KJ/KG        -1497.65
 G, KJ/KG        -34402.7
 S, KJ/(KG)(K)    11.5302

 M, (1/n)          25.559
 (dLV/dLP)t      -1.04566
 (dLV/dLT)p        1.9849
 Cp, KJ/(KG)(K)    8.7989
 GAMMAs            1.1111
 SON VEL,M/SEC     1030.3

 MOLE FRACTIONS

 *C              1.308-12
 *CH             9.596-14
 CH2             4.987-14
 CH3             2.696-14
 CH2OH           1.839-14
 CH3O            4.170-15
 CH4             1.955-15
 CH3OH           2.912-16
 *CO             7.1674-2
 *CO2            1.4507-1
 COOH            2.8747-7
 CH2CO,ketene    1.372-16
 C2O             1.655-14
 *H              1.9065-2
 HCO             1.1137-7
 HCCO            2.881-16
 HO2             8.5606-5
 *H2             2.1622-2
 HCHO,formaldehy 6.366-10
 HCOOH           8.5274-9
 H2O             3.1809-1
 H2O2            2.6681-6
 *O              4.7980-2
 *OH             9.6142-2
 *O2             2.8027-1
 O3              1.7242-7

  * THERMODYNAMIC PROPERTIES FITTED TO 20000.K









         THERMODYNAMIC EQUILIBRIUM COMBUSTION PROPERTIES AT ASSIGNED

                                   PRESSURES

 CASE =                

             REACTANT                       MOLES         ENERGY      TEMP
                                                         KJ/KG-MOL      K
 FUEL        CH4                          0.8500000    -74533.907    300.000
 OXIDANT     O2                           2.3000000        54.358    300.000
 FUEL        C2H6                         0.1000000    -83754.210    300.000
 FUEL        C3H8                         0.0500000   -104543.521    300.000

 O/F=    5.57832  %FUEL= 15.201451  R,EQ.RATIO= 0.700000  PHI,EQ.RATIO= 0.700000

 THERMODYNAMIC PROPERTIES

 P, BAR            1.0000
 T, K             2986.71
 RHO, KG/CU M    9.8524-2
 H, KJ/KG         -619.24
 U, KJ/KG        -1634.22
 G, KJ/KG        -36453.8
 S, KJ/(KG)(K)    11.9980

 M, (1/n)          24.467
 (dLV/dLP)t      -1.05508
 (dLV/dLT)p        2.1605
 Cp, KJ/(KG)(K)   10.2906
 GAMMAs            1.1100
 SON VEL,M/SEC     1061.4

 MOLE FRACTIONS

 *C              3.568-12
 *CH             2.891-13
 CH2             1.559-13
 CH3             8.569-14
 CH2OH           4.555-14
 CH3O            1.068-14
 CH4             6.477-15
 CH3OH           7.652-16
 *CO             9.6014-2
 *CO2            1.4078-1
 COOH            3.7896-7
 CH2CO,ketene    4.638-16
 C2O             4.906-14
 *H              2.6830-2
 HCO             1.9914-7
 HCCO            9.466-16
 HO2             7.9054-5
 *H2             3.1239-2
 HCHO,formaldehy 1.2343-9
 HCOOH           1.2153-8
 H2O             3.3777-1
 H2O2            2.6744-6
 *O              4.9997-2
 *OH             1.0333-1
 *O2             2.1395-1
 O3              1.2914-7

  * THERMODYNAMIC PROPERTIES FITTED TO 20000.K









         THERMODYNAMIC EQUILIBRIUM COMBUSTION PROPERTIES AT ASSIGNED

                                   PRESSURES

 CASE =                

             REACTANT                       MOLES         ENERGY      TEMP
                                                         KJ/KG-MOL      K
 FUEL        CH4                          0.8500000    -74533.907    300.000
 OXIDANT     O2                           2.3000000        54.358    300.000
 FUEL        C2H6                         0.1000000    -83754.210    300.000
 FUEL        C3H8                         0.0500000   -104543.521    300.000

 O/F=    4.88103  %FUEL= 17.003826  R,EQ.RATIO= 0.800000  PHI,EQ.RATIO= 0.800000

 THERMODYNAMIC PROPERTIES

 P, BAR            1.0000
 T, K             3021.38
 RHO, KG/CU M    9.3462-2
 H, KJ/KG         -692.86
 U, KJ/KG        -1762.82
 G, KJ/KG        -38265.5
 S, KJ/(KG)(K)    12.4356

 M, (1/n)          23.479
 (dLV/dLP)t      -1.06245
 (dLV/dLT)p        2.2933
 Cp, KJ/(KG)(K)   11.5532
 GAMMAs            1.1096
 SON VEL,M/SEC     1089.6

 MOLE FRACTIONS

 *C              7.576-12
 *CH             6.753-13
 CH2             3.843-13
 CH3             2.196-13
 CH2OH           9.366-14
 CH3O            2.246-14
 CH4             1.757-14
 CH3OH           1.685-15
 *CO             1.1988-1
 *CO2            1.3430-1
 COOH            4.5707-7
 CH2CO,ketene    1.236-15
 C2O             1.130-13
 *H              3.4742-2
 HCO             3.1071-7
 HCCO            2.404-15
 HO2             6.9432-5
 *H2             4.2358-2
 HCHO,formaldehy 2.0924-9
 HCOOH           1.5894-8
 H2O             3.5328-1
 H2O2            2.5536-6
 *O              4.8783-2
 *OH             1.0591-1
 *O2             1.6068-1
 O3              9.0923-8

  * THERMODYNAMIC PROPERTIES FITTED TO 20000.K









         THERMODYNAMIC EQUILIBRIUM COMBUSTION PROPERTIES AT ASSIGNED

                                   PRESSURES

 CASE =                

             REACTANT                       MOLES         ENERGY      TEMP
                                                         KJ/KG-MOL      K
 FUEL        CH4                          0.8500000    -74533.907    300.000
 OXIDANT     O2                           2.3000000        54.358    300.000
 FUEL        C2H6                         0.1000000    -83754.210    300.000
 FUEL        C3H8                         0.0500000   -104543.521    300.000

 O/F=    4.33869  %FUEL= 18.731177  R,EQ.RATIO= 0.900000  PHI,EQ.RATIO= 0.900000

 THERMODYNAMIC PROPERTIES

 P, BAR            1.0000
 T, K             3044.43
 RHO, KG/CU M    8.9217-2
 H, KJ/KG         -763.42
 U, KJ/KG        -1884.29
 G, KJ/KG        -39872.5
 S, KJ/(KG)(K)    12.8461

 M, (1/n)          22.583
 (dLV/dLP)t      -1.06757
 (dLV/dLT)p        2.3821
 Cp, KJ/(KG)(K)   12.5547
 GAMMAs            1.1097
 SON VEL,M/SEC     1115.3

 MOLE FRACTIONS

 *C              1.356-11
 *CH             1.328-12
 CH2             8.081-13
 CH3             4.892-13
 CH2OH           1.701-13
 CH3O            4.140-14
 CH4             4.193-14
 CH3OH           3.304-15
 *CO             1.4289-1
 *CO2            1.2644-1
 COOH            5.1776-7
 C2H2,acetylene  1.218-16
 CH2CO,ketene    2.819-15
 C2O             2.199-13
 *H              4.2458-2
 HCO             4.4219-7
 HCCO            5.150-15
 HO2             5.8386-5
 *H2             5.5078-2
 HCHO,formaldehy 3.2457-9
 HCOOH           1.9599-8
 H2O             3.6511-1
 H2O2            2.3414-6
 *O              4.5198-2
 *OH             1.0461-1
 *O2             1.1816-1
 O3              6.0369-8

  * THERMODYNAMIC PROPERTIES FITTED TO 20000.K









         THERMODYNAMIC EQUILIBRIUM COMBUSTION PROPERTIES AT ASSIGNED

                                   PRESSURES

 CASE =                

             REACTANT                       MOLES         ENERGY      TEMP
                                                         KJ/KG-MOL      K
 FUEL        CH4                          0.8500000    -74533.907    300.000
 OXIDANT     O2                           2.3000000        54.358    300.000
 FUEL        C2H6                         0.1000000    -83754.210    300.000
 FUEL        C3H8                         0.0500000   -104543.521    300.000

 O/F=    3.90482  %FUEL= 20.388093  R,EQ.RATIO= 1.000000  PHI,EQ.RATIO= 1.000000

 THERMODYNAMIC PROPERTIES

 P, BAR            1.0000
 T, K             3057.78
 RHO, KG/CU M    8.5618-2
 H, KJ/KG         -831.10
 U, KJ/KG        -1999.08
 G, KJ/KG        -41291.7
 S, KJ/(KG)(K)    13.2320

 M, (1/n)          21.768
 (dLV/dLP)t      -1.07019
 (dLV/dLT)p        2.4232
 Cp, KJ/(KG)(K)   13.2435
 GAMMAs            1.1101
 SON VEL,M/SEC     1138.7

 MOLE FRACTIONS

 *C              2.137-11
 *CH             2.303-12
 CH2             1.518-12
 CH3             9.901-13
 CH2OH           2.830-13
 CH3O            6.947-14
 CH4             9.204-14
 CH3OH           5.987-15
 *CO             1.6483-1
 *CO2            1.1773-1
 COOH            5.5874-7
 C2H2,acetylene  3.103-16
 CH2CO,ketene    5.788-15
 C2O             3.794-13
 *H              4.9649-2
 HCO             5.8860-7
 HCCO            9.783-15
 HO2             4.7047-5
 *H2             6.9569-2
 HCHO,formaldehy 4.7317-9
 HCOOH           2.3147-8
 H2O             3.7358-1
 H2O2            2.0667-6
 *O              3.9972-2
 *OH             1.0005-1
 *O2             8.4576-2
 O3              3.7659-8

  * THERMODYNAMIC PROPERTIES FITTED TO 20000.K









         THERMODYNAMIC EQUILIBRIUM COMBUSTION PROPERTIES AT ASSIGNED

                                   PRESSURES

 CASE =                

             REACTANT                       MOLES         ENERGY      TEMP
                                                         KJ/KG-MOL      K
 FUEL        CH4                          0.8500000    -74533.907    300.000
 OXIDANT     O2                           2.3000000        54.358    300.000
 FUEL        C2H6                         0.1000000    -83754.210    300.000
 FUEL        C3H8                         0.0500000   -104543.521    300.000

 O/F=    3.54984  %FUEL= 21.978797  R,EQ.RATIO= 1.100000  PHI,EQ.RATIO= 1.100000

 THERMODYNAMIC PROPERTIES

 P, BAR            1.0000
 T, K             3062.28
 RHO, KG/CU M    8.2556-2
 H, KJ/KG         -896.08
 U, KJ/KG        -2107.37
 G, KJ/KG        -42528.1
 S, KJ/(KG)(K)    13.5951

 M, (1/n)          21.020
 (dLV/dLP)t      -1.06996
 (dLV/dLT)p        2.4113
 Cp, KJ/(KG)(K)   13.5492
 GAMMAs            1.1108
 SON VEL,M/SEC     1160.0

 MOLE FRACTIONS

 *C              3.038-11
 *CH             3.615-12
 CH2             2.617-12
 CH3             1.872-12
 CH2OH           4.409-13
 CH3O            1.085-13
 CH4             1.913-13
 CH3OH           1.027-14
 *CO             1.8561-1
 *CO2            1.0853-1
 COOH            5.7886-7
 C2H2,acetylene  7.233-16
 CH2CO,ketene    1.104-14
 O(CH)2O         1.245-16
 C2O             5.966-13
 *H              5.5961-2
 HCO             7.4376-7
 HCCO            1.700-14
 HO2             3.6214-5
 *H2             8.6069-2
 HCHO,formaldehy 6.5932-9
 HCOOH           2.6437-8
 H2O             3.7882-1
 H2O2            1.7543-6
 *O              3.3739-2
 *OH             9.2730-2
 *O2             5.8497-2
 O3              2.1878-8

  * THERMODYNAMIC PROPERTIES FITTED TO 20000.K









         THERMODYNAMIC EQUILIBRIUM COMBUSTION PROPERTIES AT ASSIGNED

                                   PRESSURES

 CASE =                

             REACTANT                       MOLES         ENERGY      TEMP
                                                         KJ/KG-MOL      K
 FUEL        CH4                          0.8500000    -74533.907    300.000
 OXIDANT     O2                           2.3000000        54.358    300.000
 FUEL        C2H6                         0.1000000    -83754.210    300.000
 FUEL        C3H8                         0.0500000   -104543.521    300.000

 O/F=    3.25402  %FUEL= 23.507179  R,EQ.RATIO= 1.200000  PHI,EQ.RATIO= 1.200000

 THERMODYNAMIC PROPERTIES

 P, BAR            1.0000
 T, K             3058.01
 RHO, KG/CU M    7.9959-2
 H, KJ/KG         -958.51
 U, KJ/KG        -2209.15
 G, KJ/KG        -43577.9
 S, KJ/(KG)(K)    13.9370

 M, (1/n)          20.330
 (dLV/dLP)t      -1.06664
 (dLV/dLT)p        2.3417
 Cp, KJ/(KG)(K)   13.3983
 GAMMAs            1.1120
 SON VEL,M/SEC     1179.3

 MOLE FRACTIONS

 *C              3.941-11
 *CH             5.212-12
 CH2             4.215-12
 CH3             3.373-12
 CH2OH           6.523-13
 CH3O            1.601-13
 CH4             3.848-13
 CH3OH           1.693-14
 *CO             2.0517-1
 *CO2            9.9099-2
 COOH            5.7777-7
 C2H             1.745-16
 C2H2,acetylene  1.585-15
 CH2CO,ketene    1.999-14
 O(CH)2O         1.850-16
 C2O             8.700-13
 C3O2            1.521-16
 *H              6.1001-2
 HCO             9.0000-7
 HCCO            2.753-14
 HO2             2.6458-5
 *H2             1.0488-1
 HCHO,formaldehy 8.8796-9
 HCOOH           2.9375-8
 H2O             3.8087-1
 H2O2            1.4264-6
 *O              2.7072-2
 *OH             8.3145-2
 *O2             3.8736-2
 O3              1.1679-8

  * THERMODYNAMIC PROPERTIES FITTED TO 20000.K









         THERMODYNAMIC EQUILIBRIUM COMBUSTION PROPERTIES AT ASSIGNED

                                   PRESSURES

 CASE =                

             REACTANT                       MOLES         ENERGY      TEMP
                                                         KJ/KG-MOL      K
 FUEL        CH4                          0.8500000    -74533.907    300.000
 OXIDANT     O2                           2.3000000        54.358    300.000
 FUEL        C2H6                         0.1000000    -83754.210    300.000
 FUEL        C3H8                         0.0500000   -104543.521    300.000

 O/F=    3.00371  %FUEL= 24.976831  R,EQ.RATIO= 1.300000  PHI,EQ.RATIO= 1.300000

 THERMODYNAMIC PROPERTIES

 P, BAR            1.0000
 T, K             3044.51
 RHO, KG/CU M    7.7782-2
 H, KJ/KG        -1018.54
 U, KJ/KG        -2304.19
 G, KJ/KG        -44429.5
 S, KJ/(KG)(K)    14.2587

 M, (1/n)          19.689
 (dLV/dLP)t      -1.06029
 (dLV/dLT)p        2.2152
 Cp, KJ/(KG)(K)   12.7508
 GAMMAs            1.1139
 SON VEL,M/SEC     1196.7

 MOLE FRACTIONS

 *C              4.683-11
 *CH             6.946-12
 CH2             6.399-12
 CH3             5.866-12
 CH2OH           9.246-13
 CH3O            2.250-13
 CH4             7.613-13
 CH3OH           2.719-14
 *CO             2.2348-1
 *CO2            8.9624-2
 COOH            5.5597-7
 C2H             3.147-16
 C2H2,acetylene  3.327-15
 CH2CO,ketene    3.490-14
 O(CH)2O         2.627-16
 C2O             1.187-12
 C3O2            2.364-16
 *H              6.4322-2
 HCO             1.0477-6
 HCCO            4.211-14
 HO2             1.8175-5
 *H2             1.2634-1
 HCHO,formaldehy 1.1645-8
 HCOOH           3.1870-8
 H2O             3.7959-1
 H2O2            1.1037-6
 *O              2.0496-2
 *OH             7.1834-2
 *O2             2.4284-2
 O3              5.6260-9

  * THERMODYNAMIC PROPERTIES FITTED TO 20000.K









         THERMODYNAMIC EQUILIBRIUM COMBUSTION PROPERTIES AT ASSIGNED

                                   PRESSURES

 CASE =                

             REACTANT                       MOLES         ENERGY      TEMP
                                                         KJ/KG-MOL      K
 FUEL        CH4                          0.8500000    -74533.907    300.000
 OXIDANT     O2                           2.3000000        54.358    300.000
 FUEL        C2H6                         0.1000000    -83754.210    300.000
 FUEL        C3H8                         0.0500000   -104543.521    300.000

 O/F=    2.78916  %FUEL= 26.391076  R,EQ.RATIO= 1.400000  PHI,EQ.RATIO= 1.400000

 THERMODYNAMIC PROPERTIES

 P, BAR            1.0000
 T, K             3020.92
 RHO, KG/CU M    7.6002-2
 H, KJ/KG        -1076.31
 U, KJ/KG        -2392.06
 G, KJ/KG        -45065.1
 S, KJ/(KG)(K)    14.5614

 M, (1/n)          19.090
 (dLV/dLP)t      -1.05154
 (dLV/dLT)p        2.0429
 Cp, KJ/(KG)(K)   11.6511
 GAMMAs            1.1167
 SON VEL,M/SEC     1212.1

 MOLE FRACTIONS

 *C              5.081-11
 *CH             8.552-12
 CH2             9.194-12
 CH3             9.929-12
 CH2OH           1.261-12
 CH3O            3.023-13
 CH4             1.500-12
 CH3OH           4.285-14
 *CO             2.4047-1
 *CO2            8.0289-2
 COOH            5.1503-7
 C2H             5.293-16
 C2H2,acetylene  6.783-15
 CH2CO,ketene    5.941-14
 O(CH)2O         3.588-16
 C2O             1.523-12
 C3O2            3.528-16
 *H              6.5461-2
 HCO             1.1749-6
 HCCO            6.118-14
 HO2             1.1599-5
 *H2             1.5080-1
 HCHO,formaldehy 1.4942-8
 HCOOH           3.3824-8
 H2O             3.7480-1
 H2O2            8.0561-7
 *O              1.4494-2
 *OH             5.9448-2
 *O2             1.4227-2
 O3              2.3930-9

  * THERMODYNAMIC PROPERTIES FITTED TO 20000.K









         THERMODYNAMIC EQUILIBRIUM COMBUSTION PROPERTIES AT ASSIGNED

                                   PRESSURES

 CASE =                

             REACTANT                       MOLES         ENERGY      TEMP
                                                         KJ/KG-MOL      K
 FUEL        CH4                          0.8500000    -74533.907    300.000
 OXIDANT     O2                           2.3000000        54.358    300.000
 FUEL        C2H6                         0.1000000    -83754.210    300.000
 FUEL        C3H8                         0.0500000   -104543.521    300.000

 O/F=    2.60322  %FUEL= 27.752987  R,EQ.RATIO= 1.500000  PHI,EQ.RATIO= 1.500000

 THERMODYNAMIC PROPERTIES

 P, BAR            1.0000
 T, K             2986.21
 RHO, KG/CU M    7.4611-2
 H, KJ/KG        -1131.94
 U, KJ/KG        -2472.22
 G, KJ/KG        -45464.1
 S, KJ/(KG)(K)    14.8456

 M, (1/n)          18.525
 (dLV/dLP)t      -1.04163
 (dLV/dLT)p        1.8479
 Cp, KJ/(KG)(K)   10.2549
 GAMMAs            1.1208
 SON VEL,M/SEC     1225.7

 MOLE FRACTIONS

 *C              4.992-11
 *CH             9.675-12
 CH2             1.249-11
 CH3             1.643-11
 CH2OH           1.657-12
 CH3O            3.883-13
 CH4             2.972-12
 CH3OH           6.661-14
 *CO             2.5605-1
 *CO2            7.1285-2
 COOH            4.5804-7
 C2H             8.307-16
 C2H2,acetylene  1.354-14
 CH2CO,ketene    9.929-14
 O(CH)2O         4.731-16
 C2O             1.834-12
 C3O2            5.091-16
 *H              6.4022-2
 HCO             1.2679-6
 HCCO            8.465-14
 HO2             6.7856-6
 *H2             1.7843-1
 HCHO,formaldehy 1.8801-8
 HCOOH           3.5143-8
 H2O             3.6627-1
 H2O2            5.4919-7
 *O              9.4588-3
 *OH             4.6793-2
 *O2             7.6847-3
 O3              8.780-10

  * THERMODYNAMIC PROPERTIES FITTED TO 20000.K









         THERMODYNAMIC EQUILIBRIUM COMBUSTION PROPERTIES AT ASSIGNED

                                   PRESSURES

 CASE =                

             REACTANT                       MOLES         ENERGY      TEMP
                                                         KJ/KG-MOL      K
 FUEL        CH4                          0.8500000    -74533.907    300.000
 OXIDANT     O2                           2.3000000        54.358    300.000
 FUEL        C2H6                         0.1000000    -83754.210    300.000
 FUEL        C3H8                         0.0500000   -104543.521    300.000

 O/F=    2.44051  %FUEL= 29.065418  R,EQ.RATIO= 1.600000  PHI,EQ.RATIO= 1.600000

 THERMODYNAMIC PROPERTIES

 P, BAR            1.0000
 T, K             2939.55
 RHO, KG/CU M    7.3607-2
 H, KJ/KG        -1185.55
 U, KJ/KG        -2544.11
 G, KJ/KG        -45608.3
 S, KJ/(KG)(K)    15.1121

 M, (1/n)          17.990
 (dLV/dLP)t      -1.03203
 (dLV/dLT)p        1.6578
 Cp, KJ/(KG)(K)    8.7874
 GAMMAs            1.1268
 SON VEL,M/SEC     1237.2

 MOLE FRACTIONS

 *C              4.388-11
 *CH             9.963-12
 CH2             1.597-11
 CH3             2.659-11
 CH2OH           2.092-12
 CH3O            4.754-13
 CH4             5.946-12
 CH3OH           1.023-13
 *CO             2.7009-1
 *CO2            6.2821-2
 COOH            3.8996-7
 C2H             1.212-15
 C2H2,acetylene  2.653-14
 CH2CO,ketene    1.634-13
 O(CH)2O         6.026-16
 C2O             2.067-12
 C3O2            7.124-16
 *H              5.9847-2
 HCO             1.3134-6
 HCCO            1.114-13
 HO2             3.5955-6
 *H2             2.0915-1
 HCHO,formaldehy 2.3206-8
 HCOOH           3.5754-8
 H2O             3.5388-1
 H2O2            3.4645-7
 *O              5.6327-3
 *OH             3.4789-2
 *O2             3.7835-3
 O3              2.723-10

  * THERMODYNAMIC PROPERTIES FITTED TO 20000.K









         THERMODYNAMIC EQUILIBRIUM COMBUSTION PROPERTIES AT ASSIGNED

                                   PRESSURES

 CASE =                

             REACTANT                       MOLES         ENERGY      TEMP
                                                         KJ/KG-MOL      K
 FUEL        CH4                          0.8500000    -74533.907    300.000
 OXIDANT     O2                           2.3000000        54.358    300.000
 FUEL        C2H6                         0.1000000    -83754.210    300.000
 FUEL        C3H8                         0.0500000   -104543.521    300.000

 O/F=    2.29696  %FUEL= 30.331017  R,EQ.RATIO= 1.700000  PHI,EQ.RATIO= 1.700000

 THERMODYNAMIC PROPERTIES

 P, BAR            1.0000
 T, K             2880.78
 RHO, KG/CU M    7.2987-2
 H, KJ/KG        -1237.25
 U, KJ/KG        -2607.35
 G, KJ/KG        -45489.7
 S, KJ/(KG)(K)    15.3613

 M, (1/n)          17.482
 (dLV/dLP)t      -1.02378
 (dLV/dLT)p        1.4932
 Cp, KJ/(KG)(K)    7.4446
 GAMMAs            1.1346
 SON VEL,M/SEC     1246.8

 MOLE FRACTIONS

 *C              3.413-11
 *CH             9.245-12
 CH2             1.906-11
 CH3             4.190-11
 CH2OH           2.530-12
 CH3O            5.522-13
 CH4             1.201-11
 CH3OH           1.551-13
 *CO             2.8250-1
 *CO2            5.5102-2
 COOH            3.1731-7
 C2H             1.630-15
 C2H2,acetylene  5.094-14
 C2H2,vinylidene 1.206-16
 CH2CO,ketene    2.650-13
 O(CH)2O         7.411-16
 C2O             2.170-12
 C3O2            9.679-16
 *H              5.3188-2
 HCO             1.3018-6
 HCCO            1.388-13
 HO2             1.7119-6
 *H2             2.4235-1
 HCHO,formaldehy 2.8070-8
 HCOOH           3.5631-8
 H2O             3.3783-1
 H2O2            2.0102-7
 *O              3.0355-3
 *OH             2.4306-2
 *O2             1.6864-3
 O3              7.046-11

  * THERMODYNAMIC PROPERTIES FITTED TO 20000.K









         THERMODYNAMIC EQUILIBRIUM COMBUSTION PROPERTIES AT ASSIGNED

                                   PRESSURES

 CASE =                

             REACTANT                       MOLES         ENERGY      TEMP
                                                         KJ/KG-MOL      K
 FUEL        CH4                          0.8500000    -74533.907    300.000
 OXIDANT     O2                           2.3000000        54.358    300.000
 FUEL        C2H6                         0.1000000    -83754.210    300.000
 FUEL        C3H8                         0.0500000   -104543.521    300.000

 O/F=    2.16935  %FUEL= 31.552247  R,EQ.RATIO= 1.800000  PHI,EQ.RATIO= 1.800000

 THERMODYNAMIC PROPERTIES

 P, BAR            1.0000
 T, K             2810.53
 RHO, KG/CU M    7.2741-2
 H, KJ/KG        -1287.13
 U, KJ/KG        -2661.87
 G, KJ/KG        -45113.7
 S, KJ/(KG)(K)    15.5937

 M, (1/n)          16.998
 (dLV/dLP)t      -1.01720
 (dLV/dLT)p        1.3613
 Cp, KJ/(KG)(K)    6.3214
 GAMMAs            1.1444
 SON VEL,M/SEC     1254.3

 MOLE FRACTIONS

 *C              2.326-11
 *CH             7.663-12
 CH2             2.110-11
 CH3             6.403-11
 CH2OH           2.918-12
 CH3O            6.060-13
 CH4             2.441-11
 CH3OH           2.314-13
 *CO             2.9319-1
 *CO2            4.8280-2
 COOH            2.4679-7
 C2H             2.005-15
 C2H2,acetylene  9.538-14
 C2H2,vinylidene 1.884-16
 CH2CO,ketene    4.222-13
 O(CH)2O         8.794-16
 C2O             2.112-12
 C3O2            1.277-15
 *H              4.4756-2
 HCO             1.2319-6
 HCCO            1.633-13
 HO2             7.3009-7
 *H2             2.7699-1
 HCHO,formaldehy 3.3227-8
 HCOOH           3.4826-8
 H2O             3.1871-1
 H2O2            1.0703-7
 *O              1.4740-3
 *OH             1.5918-2
 *O2             6.7917-4
 O3              1.516-11

  * THERMODYNAMIC PROPERTIES FITTED TO 20000.K









         THERMODYNAMIC EQUILIBRIUM COMBUSTION PROPERTIES AT ASSIGNED

                                   PRESSURES

 CASE =                

             REACTANT                       MOLES         ENERGY      TEMP
                                                         KJ/KG-MOL      K
 FUEL        CH4                          0.8500000    -74533.907    300.000
 OXIDANT     O2                           2.3000000        54.358    300.000
 FUEL        C2H6                         0.1000000    -83754.210    300.000
 FUEL        C3H8                         0.0500000   -104543.521    300.000

 O/F=    2.05517  %FUEL= 32.731400  R,EQ.RATIO= 1.900000  PHI,EQ.RATIO= 1.900000

 THERMODYNAMIC PROPERTIES

 P, BAR            1.0000
 T, K             2730.00
 RHO, KG/CU M    7.2857-2
 H, KJ/KG        -1335.30
 U, KJ/KG        -2707.86
 G, KJ/KG        -44495.9
 S, KJ/(KG)(K)    15.8097

 M, (1/n)          16.537
 (dLV/dLP)t      -1.01216
 (dLV/dLT)p        1.2595
 Cp, KJ/(KG)(K)    5.4211
 GAMMAs            1.1560
 SON VEL,M/SEC     1259.7

 MOLE FRACTIONS

 *C              1.380-11
 *CH             5.636-12
 CH2             2.154-11
 CH3             9.452-11
 CH2OH           3.205-12
 CH3O            6.271-13
 CH4             4.989-11
 CH3OH           3.398-13
 *CO             3.0222-1
 *CO2            4.2412-2
 COOH            1.8368-7
 C2H             2.243-15
 C2H2,acetylene  1.735-13
 C2H2,vinylidene 2.752-16
 CH2CO,ketene    6.607-13
 O(CH)2O         1.007-15
 CH3CO,acetyl    1.333-16
 C2O             1.901-12
 C3O2            1.637-15
 *H              3.5553-2
 HCO             1.1115-6
 HCCO            1.808-13
 HO2             2.7858-7
 *H2             3.1180-1
 HCHO,formaldehy 3.8475-8
 HCOOH           3.3455-8
 H2O             2.9737-1
 H2O2            5.2272-8
 *O              6.4312-4
 *OH             9.7580-3
 *O2             2.4705-4
 O3              2.706-12

  * THERMODYNAMIC PROPERTIES FITTED TO 20000.K









         THERMODYNAMIC EQUILIBRIUM COMBUSTION PROPERTIES AT ASSIGNED

                                   PRESSURES

 CASE =                

             REACTANT                       MOLES         ENERGY      TEMP
                                                         KJ/KG-MOL      K
 FUEL        CH4                          0.8500000    -74533.907    300.000
 OXIDANT     O2                           2.3000000        54.358    300.000
 FUEL        C2H6                         0.1000000    -83754.210    300.000
 FUEL        C3H8                         0.0500000   -104543.521    300.000

 O/F=    1.95241  %FUEL= 33.870614  R,EQ.RATIO= 2.000000  PHI,EQ.RATIO= 2.000000

 THERMODYNAMIC PROPERTIES

 P, BAR            1.0000
 T, K             2640.46
 RHO, KG/CU M    7.3325-2
 H, KJ/KG        -1381.83
 U, KJ/KG        -2745.62
 G, KJ/KG        -43655.4
 S, KJ/(KG)(K)    16.0099

 M, (1/n)          16.098
 (dLV/dLP)t      -1.00834
 (dLV/dLT)p        1.1819
 Cp, KJ/(KG)(K)    4.7070
 GAMMAs            1.1695
 SON VEL,M/SEC     1262.9

 MOLE FRACTIONS

 *C              7.063-12
 *CH             3.654-12
 CH2             2.021-11
 CH3             1.347-10
 CH2OH           3.348-12
 CH3O            6.114-13
 CH4             1.028-10
 CH3OH           4.920-13
 *CO             3.0968-1
 *CO2            3.7464-2
 COOH            1.3089-7
 C2H             2.271-15
 C2H2,acetylene  3.068-13
 C2H2,vinylidene 3.748-16
 CH2CO,ketene    1.017-12
 O(CH)2O         1.116-15
 CH3CO,acetyl    2.023-16
 C2O             1.577-12
 C3O2            2.044-15
 *H              2.6584-2
 HCO             9.5503-7
 HCCO            1.882-13
 HO2             9.4761-8
 *H2             3.4560-1
 HCHO,formaldehy 4.3625-8
 HCOOH           3.1671-8
 H2O             2.7476-1
 H2O2            2.3375-8
 *O              2.5089-4
 *OH             5.5861-3
 *O2             8.0880-5
 O3              3.986-13

  * THERMODYNAMIC PROPERTIES FITTED TO 20000.K



