*******************************************************************************

         NASA-GLENN CHEMICAL EQUILIBRIUM PROGRAM CEA2, FEBRUARY 5, 2004
                   BY  BONNIE MCBRIDE AND SANFORD GORDON
      REFS: NASA RP-1311, PART I, 1994 AND NASA RP-1311, PART II, 1996

 *******************************************************************************



  
 ### CEA analysis performed on Mon 11-Jul-2022 13:05:36
  
 # Problem Type: "Assigned Temperature and Volume (or Density)"
  
 prob case=test___________5469 tv
  
 # Temperature (1 value):
 t,k= 3000
 # Density (1 value):
 rho,kg/m**3= 1.0358
  
 # Equivalence based on Fuel/Oxid. wt ratio (Eq 9.19*) (1 value):
 phi= 3.5
  
 # You selected the following fuels and oxidizers:
 reac
 fuel CH4              mole=100.0000  t,k= 300.000
 oxid Air              mole=100.0000  t,k= 300.000
  
 # You selected these options for output:
 # short version of output
 output short
 # Proportions of any products will be expressed as Mole Fractions.
 # Heat will be expressed as siunits
 output siunits
 # Trace variable:
 output trace=1e-16
  
 # Input prepared by this script:/var/www/sites/cearun.grc.nasa.gov/cgi-bin/CEARU
 N/prepareInputFile.cgi
  
 ### IMPORTANT:  The following line is the end of your CEA input file!
 end




               THERMODYNAMIC EQUILIBRIUM PROPERTIES AT ASSIGNED

                            TEMPERATURE AND VOLUME

 CASE = test___________

             REACTANT                       MOLES         ENERGY      TEMP
                                                         KJ/KG-MOL      K
 FUEL        CH4                        100.0000000    -77028.260    300.000
 OXIDANT     Air                        100.0000000     -2566.042    300.000

 O/F=    4.92529  %FUEL= 16.876805  R,EQ.RATIO= 3.496199  PHI,EQ.RATIO= 3.500000

 THERMODYNAMIC PROPERTIES

 P, BAR            14.195
 T, K             3000.00
 RHO, KG/CU M    1.0358 0
 H, KJ/KG         3795.20
 U, KJ/KG         2424.75
 G, KJ/KG        -34503.5
 S, KJ/(KG)(K)    12.7662

 M, (1/n)          18.201
 (dLV/dLP)t      -1.00635
 (dLV/dLT)p        1.1171
 Cp, KJ/(KG)(K)    3.0369
 GAMMAs            1.2215
 SON VEL,M/SEC     1293.8

 MOLE FRACTIONS

 *Ar             4.8916-3
 *C              1.1709-9
 *CH             1.1626-9
 CH2             7.5620-9
 CH3             4.9828-8
 CH2OH           1.798-10
 CH3O            4.252-11
 CH4             4.5463-8
 CH3OH           3.663-11
 *CN             1.9358-7
 CNN             1.637-13
 *CO             1.8975-1
 *CO2            1.8536-3
 COOH            6.4516-8
 *C2             2.367-13
 C2H             2.895-11
 C2H2,acetylene  2.3234-9
 C2H2,vinylidene 7.329-12
 CH2CO,ketene    5.968-10
 O(CH)2O         1.020-13
 C2H3,vinyl      1.296-12
 CH3CN           1.338-12
 CH3CO,acetyl    5.696-13
 C2H4            1.934-12
 CH3CHO,ethanal  3.667-14
 CH3COOH         4.668-16
 C2H5            1.895-15
 C2H6            3.065-16
 CCN             1.470-15
 CNC             1.442-13
 OCCN            5.382-11
 C2N2            4.139-11
 C2O             4.278-10
 *C3             7.780-16
 C3H3,2-propynl  1.906-15
 C3O2            1.191-12
 *H              2.4666-2
 HCN             2.6665-5
 HCO             5.0660-6
 HCCN            5.271-15
 HCCO            1.012-10
 HNC             4.6431-6
 HNCO            5.4544-7
 HNO             6.6029-8
 HNO2            1.018-10
 HO2             3.4183-9
 *H2             3.4529-1
 HCHO,formaldehy 3.8291-7
 HCOOH           2.5213-8
 H2O             2.4965-2
 H2O2            1.4106-9
 *N              2.3579-6
 NCO             3.0807-8
 *NH             2.5443-6
 NH2             3.9460-6
 NH3             1.2614-5
 NH2OH           7.405-11
 *NO             6.4361-5
 NO2             2.651-10
 *N2             4.0779-1
 N2O             1.0147-8
 NCN             1.468-11
 N2H2            4.842-10
 N2H4            1.733-13
 N3              1.420-11
 N3H             1.552-11
 *O              2.5789-5
 *OH             6.4159-4
 *O2             7.3735-7
 O3              3.209-15

  * THERMODYNAMIC PROPERTIES FITTED TO 20000.K

