*******************************************************************************

         NASA-GLENN CHEMICAL EQUILIBRIUM PROGRAM CEA2, FEBRUARY 5, 2004
                   BY  BONNIE MCBRIDE AND SANFORD GORDON
      REFS: NASA RP-1311, PART I, 1994 AND NASA RP-1311, PART II, 1996

 *******************************************************************************



  
 ### CEA analysis performed on Mon 11-Jul-2022 13:05:59
  
 # Problem Type: "Assigned Temperature and Volume (or Density)"
  
 prob case=test___________5469 tv
  
 # Temperature (1 value):
 t,k= 3000
 # Density (1 value):
 rho,kg/m**3= 1.0329
  
 # Equivalence based on Fuel/Oxid. wt ratio (Eq 9.19*) (1 value):
 phi= 3.6
  
 # You selected the following fuels and oxidizers:
 reac
 fuel CH4              mole=100.0000  t,k= 300.000
 oxid Air              mole=100.0000  t,k= 300.000
  
 # You selected these options for output:
 # short version of output
 output short
 # Proportions of any products will be expressed as Mole Fractions.
 # Heat will be expressed as siunits
 output siunits
 # Trace variable:
 output trace=1e-16
  
 # Input prepared by this script:/var/www/sites/cearun.grc.nasa.gov/cgi-bin/CEARU
 N/prepareInputFile.cgi
  
 ### IMPORTANT:  The following line is the end of your CEA input file!
 end




               THERMODYNAMIC EQUILIBRIUM PROPERTIES AT ASSIGNED

                            TEMPERATURE AND VOLUME

 CASE = test___________

             REACTANT                       MOLES         ENERGY      TEMP
                                                         KJ/KG-MOL      K
 FUEL        CH4                        100.0000000    -77028.260    300.000
 OXIDANT     Air                        100.0000000     -2566.042    300.000

 O/F=    4.78848  %FUEL= 17.275697  R,EQ.RATIO= 3.596047  PHI,EQ.RATIO= 3.600000

 THERMODYNAMIC PROPERTIES

 P, BAR            14.322
 T, K             3000.00
 RHO, KG/CU M    1.0329 0
 H, KJ/KG         3891.69
 U, KJ/KG         2505.12
 G, KJ/KG        -34699.2
 S, KJ/(KG)(K)    12.8636

 M, (1/n)          17.989
 (dLV/dLP)t      -1.00638
 (dLV/dLT)p        1.1171
 Cp, KJ/(KG)(K)    3.0640
 GAMMAs            1.2223
 SON VEL,M/SEC     1301.8

 MOLE FRACTIONS

 *Ar             4.8115-3
 *C              1.5452-9
 *CH             1.5625-9
 CH2             1.0351-8
 CH3             6.9461-8
 CH2OH           1.926-10
 CH3O            4.554-11
 CH4             6.4546-8
 CH3OH           3.996-11
 *CN             2.5448-7
 CNN             2.144-13
 *CO             1.9239-1
 *CO2            1.4440-3
 COOH            5.1188-8
 *C2             4.159-13
 C2H             5.181-11
 C2H2,acetylene  4.2341-9
 C2H2,vinylidene 1.336-11
 CH2CO,ketene    8.357-10
 O(CH)2O         1.097-13
 C2H3,vinyl      2.405-12
 CH3CN           2.475-12
 CH3CO,acetyl    8.123-13
 C2H4            3.655-12
 CH3CHO,ethanal  5.326-14
 CH3COOH         5.209-16
 C2H5            3.648-15
 C2H6            6.010-16
 CCN             2.573-15
 CNC             2.525-13
 OCCN            7.237-11
 C2N2            7.217-11
 C2O             5.775-10
 *C3             1.820-15
 C3H3,2-propynl  4.709-15
 C3H4,allene     1.066-16
 C3H4,propyne    2.268-16
 C3O2            1.645-12
 *H              2.4899-2
 HCN             3.5701-5
 HCO             5.2313-6
 HCCN            9.396-15
 HCCO            1.392-10
 HNC             6.2165-6
 HNCO            5.6110-7
 HNO             5.1017-8
 HNO2            6.041-11
 HO2             2.0371-9
 *H2             3.5498-1
 HCHO,formaldehy 4.0271-7
 HCOOH           2.0374-8
 H2O             1.9720-2
 H2O2            8.561-10
 *N              2.3282-6
 NCO             3.1117-8
 *NH             2.5586-6
 NH2             4.0413-6
 NH3             1.3158-5
 NH2OH           5.935-11
 *NO             4.8828-5
 NO2             1.545-10
 *N2             4.0112-1
 N2O             7.6686-9
 NCN             1.922-11
 N2H2            4.940-10
 N2H4            1.834-13
 N3              1.391-11
 N3H             1.549-11
 *O              1.9640-5
 *OH             4.9762-4
 *O2             4.3144-7
 O3              1.443-15

  * THERMODYNAMIC PROPERTIES FITTED TO 20000.K

