
 *******************************************************************************

         NASA-GLENN CHEMICAL EQUILIBRIUM PROGRAM CEA2, MAY 21, 2004
                   BY  BONNIE MCBRIDE AND SANFORD GORDON
      REFS: NASA RP-1311, PART I, 1994 AND NASA RP-1311, PART II, 1996

 *******************************************************************************



 problem    phi,eq.ratio=2.1,2.2,2.3,2.4,2.5,2.6,2.7,2.8,2.9,3,3.1,3.2,3.3,3.4,3.
 5,3.6,
       hp   p,bar=1,  t,k=3800
 react
   fuel=C2H2,acetylene moles=1 t,k=300
   oxid=O2 moles=2.5 t,k=300
   oxid=N2 moles=9.4048 t,k=300
 output
      trace=1e-16 siunits short
 end




         THERMODYNAMIC EQUILIBRIUM COMBUSTION PROPERTIES AT ASSIGNED

                                   PRESSURES

 CASE =                

             REACTANT                       MOLES         ENERGY      TEMP
                                                         KJ/KG-MOL      K
 FUEL        C2H2,acetylene               1.0000000    228281.530    300.000
 OXIDANT     O2                           2.5000000        54.358    300.000
 OXIDANT     N2                           9.4048000        53.881    300.000

 O/F=    6.28142  %FUEL= 13.733580  R,EQ.RATIO= 2.100000  PHI,EQ.RATIO= 2.100000

 THERMODYNAMIC PROPERTIES

 P, BAR            1.0000
 T, K             2396.35
 RHO, KG/CU M    1.2690-1
 H, KJ/KG         1205.70
 U, KJ/KG          417.69
 G, KJ/KG        -23840.5
 S, KJ/(KG)(K)    10.4518

 M, (1/n)          25.284
 (dLV/dLP)t      -1.00131
 (dLV/dLT)p        1.0307
 Cp, KJ/(KG)(K)    1.7216
 GAMMAs            1.2525
 SON VEL,M/SEC      993.5

 MOLE FRACTIONS

 *C              8.269-13
 *CH             4.003-13
 CH2             3.127-12
 CH3             3.432-11
 CH2OH           2.618-13
 CH3O            3.879-14
 CH4             3.737-11
 CH3OH           4.782-14
 *CN             7.743-10
 *CO             2.5122-1
 *CO2            1.5505-2
 COOH            1.2482-8
 C2H             9.302-16
 C2H2,acetylene  3.196-13
 C2H2,vinylidene 1.727-16
 CH2CO,ketene    5.544-13
 O(CH)2O         1.769-16
 OCCN            5.756-14
 C2N2            1.172-14
 C2O             6.253-13
 C3O2            2.181-15
 *H              4.8486-3
 HCN             3.1409-7
 HCO             2.0152-7
 HCCO            6.772-14
 HNC             2.9379-8
 HNCO            3.2541-8
 HNO             5.5948-9
 HNO2            2.103-11
 HO2             9.709-10
 *H2             9.5877-2
 HCHO,formaldehy 9.8081-9
 HCOOH           3.2887-9
 H2O             3.4884-2
 H2O2            2.515-10
 *N              8.2899-8
 NCO             9.976-10
 *NH             4.3827-8
 NH2             5.4071-8
 NH3             2.6896-7
 NH2OH           5.551-13
 *NO             4.6225-5
 NO2             1.297-10
 *N2             5.9725-1
 NCN             8.834-15
 N2H2            1.451-12
 N2O             2.2405-9
 N3              7.346-14
 N3H             4.797-14
 *O              1.0876-5
 *OH             3.5696-4
 *O2             1.6372-6
 O3              5.546-16

  * THERMODYNAMIC PROPERTIES FITTED TO 20000.K









         THERMODYNAMIC EQUILIBRIUM COMBUSTION PROPERTIES AT ASSIGNED

                                   PRESSURES

 CASE =                

             REACTANT                       MOLES         ENERGY      TEMP
                                                         KJ/KG-MOL      K
 FUEL        C2H2,acetylene               1.0000000    228281.530    300.000
 OXIDANT     O2                           2.5000000        54.358    300.000
 OXIDANT     N2                           9.4048000        53.881    300.000

 O/F=    5.99590  %FUEL= 14.294080  R,EQ.RATIO= 2.200000  PHI,EQ.RATIO= 2.200000

 THERMODYNAMIC PROPERTIES

 P, BAR            1.0000
 T, K             2365.19
 RHO, KG/CU M    1.2703-1
 H, KJ/KG         1254.84
 U, KJ/KG          467.59
 G, KJ/KG        -23604.9
 S, KJ/(KG)(K)    10.5107

 M, (1/n)          24.980
 (dLV/dLP)t      -1.00117
 (dLV/dLT)p        1.0274
 Cp, KJ/(KG)(K)    1.7032
 GAMMAs            1.2580
 SON VEL,M/SEC      995.2

 MOLE FRACTIONS

 *C              8.875-13
 *CH             4.963-13
 CH2             4.747-12
 CH3             6.526-11
 CH2OH           3.119-13
 CH3O            4.489-14
 CH4             8.728-11
 CH3OH           6.856-14
 *CN             9.935-10
 *CO             2.6332-1
 *CO2            1.0953-2
 COOH            8.3419-9
 C2H             2.028-15
 C2H2,acetylene  9.281-13
 C2H2,vinylidene 4.463-16
 CH2CO,ketene    1.089-12
 O(CH)2O         2.160-16
 CH3CN           1.465-16
 C2H4            1.235-16
 OCCN            8.301-14
 C2N2            2.775-14
 C2O             8.627-13
 C3O2            3.745-15
 *H              4.4378-3
 HCN             5.2386-7
 HCO             2.0334-7
 HCCO            1.074-13
 HNC             4.7036-8
 HNCO            3.6013-8
 HNO             3.0911-9
 HNO2            7.343-12
 HO2             3.241-10
 *H2             1.0860-1
 HCHO,formaldehy 1.1649-8
 HCOOH           2.5955-9
 H2O             2.6209-2
 H2O2            9.860-11
 *N              5.9759-8
 NCO             8.763-10
 *NH             3.6489-8
 NH2             5.3704-8
 NH3             3.3299-7
 NH2OH           3.835-13
 *NO             2.4213-5
 NO2             3.955-11
 *N2             5.8624-1
 NCN             1.069-14
 N2H2            1.396-12
 N2O             1.1627-9
 N3              5.324-14
 N3H             4.070-14
 *O              5.1574-6
 *OH             2.0855-4
 *O2             5.1638-7

  * THERMODYNAMIC PROPERTIES FITTED TO 20000.K









         THERMODYNAMIC EQUILIBRIUM COMBUSTION PROPERTIES AT ASSIGNED

                                   PRESSURES

 CASE =                

             REACTANT                       MOLES         ENERGY      TEMP
                                                         KJ/KG-MOL      K
 FUEL        C2H2,acetylene               1.0000000    228281.530    300.000
 OXIDANT     O2                           2.5000000        54.358    300.000
 OXIDANT     N2                           9.4048000        53.881    300.000

 O/F=    5.73521  %FUEL= 14.847343  R,EQ.RATIO= 2.300000  PHI,EQ.RATIO= 2.300000

 THERMODYNAMIC PROPERTIES

 P, BAR            1.0000
 T, K             2334.56
 RHO, KG/CU M    1.2718-1
 H, KJ/KG         1303.33
 U, KJ/KG          517.04
 G, KJ/KG        -23364.1
 S, KJ/(KG)(K)    10.5662

 M, (1/n)          24.686
 (dLV/dLP)t      -1.00103
 (dLV/dLT)p        1.0244
 Cp, KJ/(KG)(K)    1.6877
 GAMMAs            1.2633
 SON VEL,M/SEC      996.6

 MOLE FRACTIONS

 *C              1.051-12
 *CH             6.748-13
 CH2             7.856-12
 CH3             1.345-10
 CH2OH           3.616-13
 CH3O            5.055-14
 CH4             2.197-10
 CH3OH           9.510-14
 *CN             1.4096-9
 *CO             2.7462-1
 *CO2            6.9196-3
 COOH            4.9446-9
 C2H             5.374-15
 C2H2,acetylene  3.260-12
 C2H2,vinylidene 1.393-15
 CH2CO,ketene    2.323-12
 O(CH)2O         2.574-16
 C2H3,vinyl      1.423-16
 CH3CN           6.014-16
 CH3CO,acetyl    2.122-16
 C2H4            5.480-16
 OCCN            1.318-13
 C2N2            8.059-14
 C2O             1.309-12
 C3O2            7.050-15
 *H              4.0274-3
 HCN             9.6086-7
 HCO             2.0250-7
 HCCO            1.863-13
 HNC             8.2782-8
 HNCO            3.9384-8
 HNO             1.5208-9
 HNO2            2.050-12
 HO2             8.647-11
 *H2             1.2126-1
 HCHO,formaldehy 1.3571-8
 HCOOH           1.8057-9
 H2O             1.7441-2
 H2O2            3.070-11
 *N              4.2964-8
 NCO             7.649-10
 *NH             3.0103-8
 NH2             5.2529-8
 NH3             4.0367-7
 NH2OH           2.329-13
 *NO             1.1374-5
 NO2             9.709-12
 *N2             5.7561-1
 NCN             1.431-14
 N2H2            1.323-12
 N2O             5.413-10
 N3              3.850-14
 N3H             3.424-14
 *O              2.1909-6
 *OH             1.0851-4
 *O2             1.3110-7

  * THERMODYNAMIC PROPERTIES FITTED TO 20000.K









         THERMODYNAMIC EQUILIBRIUM COMBUSTION PROPERTIES AT ASSIGNED

                                   PRESSURES

 CASE =                

             REACTANT                       MOLES         ENERGY      TEMP
                                                         KJ/KG-MOL      K
 FUEL        C2H2,acetylene               1.0000000    228281.530    300.000
 OXIDANT     O2                           2.5000000        54.358    300.000
 OXIDANT     N2                           9.4048000        53.881    300.000

 O/F=    5.49624  %FUEL= 15.393509  R,EQ.RATIO= 2.400000  PHI,EQ.RATIO= 2.400000

 THERMODYNAMIC PROPERTIES

 P, BAR            1.0000
 T, K             2304.48
 RHO, KG/CU M    1.2736-1
 H, KJ/KG         1351.21
 U, KJ/KG          566.02
 G, KJ/KG        -23117.1
 S, KJ/(KG)(K)    10.6177

 M, (1/n)          24.403
 (dLV/dLP)t      -1.00092
 (dLV/dLT)p        1.0218
 Cp, KJ/(KG)(K)    1.6743
 GAMMAs            1.2683
 SON VEL,M/SEC      997.9

 MOLE FRACTIONS

 *C              1.632-12
 *CH             1.196-12
 CH2             1.687-11
 CH3             3.580-10
 CH2OH           4.099-13
 CH3O            5.564-14
 CH4             7.109-10
 CH3OH           1.283-13
 *CN             2.6268-9
 *CO             2.8524-1
 *CO2            3.2972-3
 COOH            2.1950-9
 C2H             2.446-14
 C2H2,acetylene  1.958-11
 C2H2,vinylidene 7.430-15
 CH2CO,ketene    6.420-12
 O(CH)2O         3.007-16
 C2H3,vinyl      8.611-16
 CH3CN           4.200-15
 CH3CO,acetyl    5.989-16
 C2H4            4.111-15
 OCCN            2.740-13
 C2N2            4.051-13
 C2O             2.601-12
 C3O2            1.732-14
 *H              3.6285-3
 HCN             2.3049-6
 HCO             1.9946-7
 HCCO            4.205-13
 HNC             1.9047-7
 HNCO            4.2648-8
 HNO             5.622-10
 HNO2            3.254-13
 HO2             1.311-11
 *H2             1.3375-1
 HCHO,formaldehy 1.5557-8
 HCOOH           9.360-10
 H2O             8.6807-3
 H2O2            5.401-12
 *N              3.0813-8
 NCO             6.642-10
 *NH             2.4639-8
 NH2             5.0716-8
 NH3             4.8075-7
 NH2OH           1.050-13
 *NO             4.0385-6
 NO2             1.363-12
 *N2             5.6535-1
 NCN             2.514-14
 N2H2            1.238-12
 N2O             1.905-10
 N3              2.779-14
 N3H             2.860-14
 *O              7.0269-7
 *OH             4.2417-5
 *O2             1.9028-8

  * THERMODYNAMIC PROPERTIES FITTED TO 20000.K









         THERMODYNAMIC EQUILIBRIUM COMBUSTION PROPERTIES AT ASSIGNED

                                   PRESSURES

 CASE =                

             REACTANT                       MOLES         ENERGY      TEMP
                                                         KJ/KG-MOL      K
 FUEL        C2H2,acetylene               1.0000000    228281.530    300.000
 OXIDANT     O2                           2.5000000        54.358    300.000
 OXIDANT     N2                           9.4048000        53.881    300.000

 O/F=    5.27639  %FUEL= 15.932713  R,EQ.RATIO= 2.500000  PHI,EQ.RATIO= 2.500000

 THERMODYNAMIC PROPERTIES

 P, BAR            1.0000
 T, K             2274.95
 RHO, KG/CU M    1.2759-1
 H, KJ/KG         1398.47
 U, KJ/KG          614.69
 G, KJ/KG        -22857.3
 S, KJ/(KG)(K)    10.6621

 M, (1/n)          24.133
 (dLV/dLP)t      -1.00090
 (dLV/dLT)p        1.0195
 Cp, KJ/(KG)(K)    1.6624
 GAMMAs            1.2731
 SON VEL,M/SEC      998.9

 MOLE FRACTIONS

 *C              7.915-11
 *CH             6.588-11
 CH2             1.1199-9
 CH3             2.9315-8
 CH2OH           4.545-13
 CH3O            5.992-14
 CH4             7.0453-8
 CH3OH           1.686-13
 *CN             1.5305-7
 CNN             2.804-15
 *CO             2.9511-1
 *CO2            4.9803-5
 COOH            3.068-11
 *C2             1.860-13
 C2H             1.083-10
 C2H2,acetylene  1.1399-7
 C2H2,vinylidene 3.836-11
 CH2CO,ketene    5.471-10
 O(CH)2O         3.445-16
 C2H3,vinyl      5.020-12
 CH3CN           2.829-11
 CH3CO,acetyl    5.181-14
 C2H4            2.957-11
 CH3CHO,ethanal  4.607-15
 C2H5            2.198-15
 C2H6            8.014-16
 CCN             4.685-16
 CNC             2.068-13
 OCCN            1.774-11
 C2N2            1.9961-9
 C2O             1.609-10
 *C3             3.063-14
 C3H3,2-propynl  2.014-13
 C3H4,allene     4.665-15
 C3H4,propyne    1.092-14
 C3O2            1.322-12
 C4H2,butadiyne  3.620-14
 C4N2            5.335-16
 *H              3.2467-3
 HCN             1.7213-4
 HCO             1.9443-7
 HCCN            3.156-15
 HCCO            2.940-11
 HNC             1.3639-5
 HNCO            4.5746-8
 HNO             6.565-12
 HO2             1.995-15
 *H2             1.4582-1
 HCHO,formaldehy 1.7559-8
 HCOOH           1.520-11
 H2O             1.3588-4
 H2O2            9.493-16
 *N              2.2052-8
 NCO             5.740-10
 *NH             2.0018-8
 NH2             4.8363-8
 NH3             5.6290-7
 NH2OH           1.480-15
 *NO             4.5554-8
 NO2             1.931-16
 *N2             5.5545-1
 NCN             1.381-12
 N2H2            1.144-12
 N2O             2.131-12
 N3              2.003-14
 N3H             2.373-14
 *O              7.1538-9
 *OH             5.2377-7
 *O2             2.789-12

  * THERMODYNAMIC PROPERTIES FITTED TO 20000.K









         THERMODYNAMIC EQUILIBRIUM COMBUSTION PROPERTIES AT ASSIGNED

                                   PRESSURES

 CASE =                

             REACTANT                       MOLES         ENERGY      TEMP
                                                         KJ/KG-MOL      K
 FUEL        C2H2,acetylene               1.0000000    228281.530    300.000
 OXIDANT     O2                           2.5000000        54.358    300.000
 OXIDANT     N2                           9.4048000        53.881    300.000

 O/F=    5.07346  %FUEL= 16.465089  R,EQ.RATIO= 2.600000  PHI,EQ.RATIO= 2.600000

 THERMODYNAMIC PROPERTIES

 P, BAR            1.0000
 T, K             2248.23
 RHO, KG/CU M    1.2917-1
 H, KJ/KG         1445.14
 U, KJ/KG          670.94
 G, KJ/KG        -22565.6
 S, KJ/(KG)(K)    10.6798

 M, (1/n)          24.145
 (dLV/dLP)t      -1.00071
 (dLV/dLT)p        1.0172
 Cp, KJ/(KG)(K)    1.6569
 GAMMAs            1.2728
 SON VEL,M/SEC      992.7

 MOLE FRACTIONS

 *C              3.2501-9
 *CH             2.9205-9
 CH2             5.6634-8
 CH3             1.7281-6
 CH2OH           4.259-13
 CH3O            5.464-14
 CH4             4.7568-6
 CH3OH           1.773-13
 *CN             7.4551-6
 CNN             1.190-13
 *CO             2.9362-1
 *CO2            8.4457-7
 COOH            4.646-13
 *C2             4.599-10
 C2H             3.1524-7
 C2H2,acetylene  4.1012-4
 C2H2,vinylidene 1.2347-7
 CH2CO,ketene    3.3632-8
 O(CH)2O         3.344-16
 C2H3,vinyl      1.7349-8
 CH3CN           1.1185-7
 CH3CO,acetyl    3.099-12
 C2H4            1.1916-7
 CH3CHO,ethanal  3.048-13
 C2H5            8.496-12
 C2H6            3.513-12
 CCN             1.166-12
 CNC             5.542-10
 OCCN            9.193-10
 C2N2            6.6916-6
 C2O             7.9827-9
 *C3             4.8976-9
 C3H3,1-propynl  1.710-11
 C3H3,2-propynl  4.3759-8
 C3H4,allene     1.1072-9
 C3H4,propyne    2.6039-9
 C3H4,cyclo-     8.453-12
 C3H5,allyl      3.247-12
 C3H6,propylene  7.215-13
 C3H6,cyclo-     3.286-15
 CNCOCN          3.416-14
 C3O2            7.690-11
 *C4             9.021-13
 C4H2,butadiyne  4.6930-7
 C4H4,1,3-cyclo- 3.193-14
 C4H6,butadiene  4.285-14
 C4H6,1butyne    5.231-15
 C4H6,2butyne    3.457-15
 C4H6,cyclo-     1.189-16
 C4N2            6.4561-9
 *C5             3.632-12
 C5H6,1,3cyclo-  1.029-15
 C6H2            5.646-10
 C6H5,phenyl     5.835-16
 C6H6            2.987-15
 *H              2.8097-3
 HCN             1.0125-2
 HCO             1.7561-7
 HCCN            8.825-12
 HCCO            1.5680-9
 HNC             7.7169-4
 HNCO            4.5174-8
 HNO             8.730-14
 *H2             1.4540-1
 HCHO,formaldehy 1.7433-8
 HCOOH           2.538-13
 H2O             2.2735-6
 *N              1.6177-8
 NCO             4.835-10
 *NH             1.5847-8
 NH2             4.2612-8
 NH3             5.7557-7
 *NO             6.114-10
 *N2             5.4683-1
 NCN             6.373-11
 N2H2            9.802-13
 N2O             2.840-14
 N3              1.480-14
 N3H             1.917-14
 *O              8.728-11
 *OH             7.3316-9
 *O2             5.724-16

  * THERMODYNAMIC PROPERTIES FITTED TO 20000.K









         THERMODYNAMIC EQUILIBRIUM COMBUSTION PROPERTIES AT ASSIGNED

                                   PRESSURES

 CASE =                

             REACTANT                       MOLES         ENERGY      TEMP
                                                         KJ/KG-MOL      K
 FUEL        C2H2,acetylene               1.0000000    228281.530    300.000
 OXIDANT     O2                           2.5000000        54.358    300.000
 OXIDANT     N2                           9.4048000        53.881    300.000

 O/F=    4.88555  %FUEL= 16.990763  R,EQ.RATIO= 2.700000  PHI,EQ.RATIO= 2.700000

 THERMODYNAMIC PROPERTIES

 P, BAR            1.0000
 T, K             2254.77
 RHO, KG/CU M    1.2884-1
 H, KJ/KG         1491.22
 U, KJ/KG          715.06
 G, KJ/KG        -22619.1
 S, KJ/(KG)(K)    10.6931

 M, (1/n)          24.154
 MW, MOL WT        23.913
 (dLV/dLP)t      -1.00075
 (dLV/dLT)p        1.0178
 Cp, KJ/(KG)(K)    1.9017
 GAMMAs            1.2296
 SON VEL,M/SEC      976.9

 MOLE FRACTIONS

 *C              3.9071-9
 *CH             3.4921-9
 CH2             6.6447-8
 CH3             1.9788-6
 CH2OH           4.430-13
 CH3O            5.722-14
 CH4             5.3393-6
 CH3OH           1.817-13
 *CN             8.5447-6
 CNN             1.403-13
 *CO             2.8897-1
 *CO2            7.4220-7
 COOH            4.256-13
 *C2             6.108-10
 C2H             4.0764-7
 C2H2,acetylene  5.1015-4
 C2H2,vinylidene 1.5787-7
 CH2CO,ketene    3.7333-8
 O(CH)2O         3.378-16
 C2H3,vinyl      2.2092-8
 CH3CN           1.3702-7
 CH3CO,acetyl    3.510-12
 C2H4            1.4809-7
 CH3CHO,ethanal  3.414-13
 C2H5            1.081-11
 C2H6            4.394-12
 CCN             1.537-12
 CNC             7.176-10
 OCCN            1.0303-9
 C2N2            8.1531-6
 C2O             9.0925-9
 *C3             7.0605-9
 C3H3,1-propynl  2.421-11
 C3H3,2-propynl  6.0908-8
 C3H4,allene     1.5285-9
 C3H4,propyne    3.5906-9
 C3H4,cyclo-     1.183-11
 C3H5,allyl      4.529-12
 C3H6,propylene  9.965-13
 C3H6,cyclo-     4.565-15
 CNCOCN          4.175-14
 C3O2            8.362-11
 *C4             1.459-12
 C4H2,butadiyne  7.1360-7
 C4H4,1,3-cyclo- 4.936-14
 C4H6,butadiene  6.542-14
 C4H6,1butyne    8.035-15
 C4H6,2butyne    5.291-15
 C4H6,cyclo-     1.824-16
 C4N2            9.6110-9
 *C5             6.404-12
 C5H6,1,3cyclo-  1.710-15
 C6H2            1.0494-9
 C6H5,phenyl     1.072-15
 C6H6            5.348-15
 *H              2.9220-3
 HCN             1.1228-2
 HCO             1.7942-7
 HCCN            1.146-11
 HCCO            1.7784-9
 HNC             8.6401-4
 HNCO            4.4899-8
 HNO             8.271-14
 *H2             1.4801-1
 HCHO,formaldehy 1.7638-8
 HCOOH           2.301-13
 H2O             2.0745-6
 *N              1.7193-8
 NCO             4.931-10
 *NH             1.6754-8
 NH2             4.4474-8
 NH3             5.8695-7
 *NO             5.702-10
 *N2             5.3749-1
 NCN             7.362-11
 N2H2            1.024-12
 N2O             2.638-14
 N3              1.553-14
 N3H             1.995-14
 *O              8.379-11
 *OH             6.8969-9
 *O2             4.923-16
 C(gr)           9.9712-3

  * THERMODYNAMIC PROPERTIES FITTED TO 20000.K









         THERMODYNAMIC EQUILIBRIUM COMBUSTION PROPERTIES AT ASSIGNED

                                   PRESSURES

 CASE =                

             REACTANT                       MOLES         ENERGY      TEMP
                                                         KJ/KG-MOL      K
 FUEL        C2H2,acetylene               1.0000000    228281.530    300.000
 OXIDANT     O2                           2.5000000        54.358    300.000
 OXIDANT     N2                           9.4048000        53.881    300.000

 O/F=    4.71107  %FUEL= 17.509863  R,EQ.RATIO= 2.800000  PHI,EQ.RATIO= 2.800000

 THERMODYNAMIC PROPERTIES

 P, BAR            1.0000
 T, K             2264.02
 RHO, KG/CU M    1.2836-1
 H, KJ/KG         1536.72
 U, KJ/KG          757.65
 G, KJ/KG        -22701.9
 S, KJ/(KG)(K)    10.7060

 M, (1/n)          24.162
 MW, MOL WT        23.667
 (dLV/dLP)t      -1.00080
 (dLV/dLT)p        1.0189
 Cp, KJ/(KG)(K)    1.9305
 GAMMAs            1.2259
 SON VEL,M/SEC      977.3

 MOLE FRACTIONS

 *C              4.5176-9
 *CH             3.9884-9
 CH2             7.3543-8
 CH3             2.1066-6
 CH2OH           4.643-13
 CH3O            6.054-14
 CH4             5.5005-6
 CH3OH           1.856-13
 *CN             9.2565-6
 CNN             1.585-13
 *CO             2.8420-1
 *CO2            7.0145-7
 COOH            4.244-13
 *C2             7.227-10
 C2H             4.6238-7
 C2H2,acetylene  5.4534-4
 C2H2,vinylidene 1.7541-7
 CH2CO,ketene    3.8318-8
 O(CH)2O         3.421-16
 C2H3,vinyl      2.4293-8
 CH3CN           1.4294-7
 CH3CO,acetyl    3.690-12
 C2H4            1.5661-7
 CH3CHO,ethanal  3.514-13
 C2H5            1.177-11
 C2H6            4.643-12
 CCN             1.804-12
 CNC             8.209-10
 OCCN            1.0841-9
 C2N2            8.5782-6
 C2O             9.7696-9
 *C3             8.3407-9
 C3H3,1-propynl  2.748-11
 C3H3,2-propynl  6.7517-8
 C3H4,allene     1.6670-9
 C3H4,propyne    3.9097-9
 C3H4,cyclo-     1.314-11
 C3H5,allyl      4.987-12
 C3H6,propylene  1.077-12
 C3H6,cyclo-     4.975-15
 CNCOCN          4.424-14
 C3O2            8.439-11
 *C4             1.803-12
 C4H2,butadiyne  8.0067-7
 C4H4,1,3-cyclo- 5.614-14
 C4H6,butadiene  7.242-14
 C4H6,1butyne    8.971-15
 C4H6,2butyne    5.876-15
 C4H6,cyclo-     2.033-16
 C4N2            1.0606-8
 *C5             7.946-12
 C5H6,1,3cyclo-  1.897-15
 C6H2            1.2359-9
 C6H5,phenyl     1.224-15
 C6H6            5.862-15
 *H              3.0832-3
 HCN             1.1557-2
 HCO             1.8510-7
 HCCN            1.310-11
 HCCO            1.8904-9
 HNC             9.0137-4
 HNCO            4.4643-8
 HNO             8.642-14
 *H2             1.5082-1
 HCHO,formaldehy 1.7862-8
 HCOOH           2.249-13
 H2O             2.0424-6
 *N              1.8827-8
 NCO             5.107-10
 *NH             1.8125-8
 NH2             4.7026-8
 NH3             5.9785-7
 *NO             5.854-10
 *N2             5.2834-1
 NCN             8.079-11
 N2H2            1.087-12
 N2O             2.700-14
 N3              1.676-14
 N3H             2.117-14
 *O              8.946-11
 *OH             7.1214-9
 *O2             5.074-16
 C(gr)           2.0519-2

  * THERMODYNAMIC PROPERTIES FITTED TO 20000.K









         THERMODYNAMIC EQUILIBRIUM COMBUSTION PROPERTIES AT ASSIGNED

                                   PRESSURES

 CASE =                

             REACTANT                       MOLES         ENERGY      TEMP
                                                         KJ/KG-MOL      K
 FUEL        C2H2,acetylene               1.0000000    228281.530    300.000
 OXIDANT     O2                           2.5000000        54.358    300.000
 OXIDANT     N2                           9.4048000        53.881    300.000

 O/F=    4.54862  %FUEL= 18.022512  R,EQ.RATIO= 2.900000  PHI,EQ.RATIO= 2.900000

 THERMODYNAMIC PROPERTIES

 P, BAR            1.0000
 T, K             2272.95
 RHO, KG/CU M    1.2790-1
 H, KJ/KG         1581.66
 U, KJ/KG          799.78
 G, KJ/KG        -22781.5
 S, KJ/(KG)(K)    10.7187

 M, (1/n)          24.171
 MW, MOL WT        23.428
 (dLV/dLP)t      -1.00085
 (dLV/dLT)p        1.0200
 Cp, KJ/(KG)(K)    1.9591
 GAMMAs            1.2222
 SON VEL,M/SEC      977.6

 MOLE FRACTIONS

 *C              5.1909-9
 *CH             4.5292-9
 CH2             8.1037-8
 CH3             2.2362-6
 CH2OH           4.855-13
 CH3O            6.387-14
 CH4             5.6586-6
 CH3OH           1.893-13
 *CN             9.9909-6
 CNN             1.781-13
 *CO             2.7959-1
 *CO2            6.6411-7
 COOH            4.229-13
 *C2             8.490-10
 C2H             5.2163-7
 C2H2,acetylene  5.8123-4
 C2H2,vinylidene 1.9400-7
 CH2CO,ketene    3.9271-8
 O(CH)2O         3.461-16
 C2H3,vinyl      2.6601-8
 CH3CN           1.4881-7
 CH3CO,acetyl    3.869-12
 C2H4            1.6520-7
 CH3CHO,ethanal  3.612-13
 C2H5            1.276-11
 C2H6            4.895-12
 CCN             2.103-12
 CNC             9.335-10
 OCCN            1.1378-9
 C2N2            9.0024-6
 C2O             1.0461-8
 *C3             9.7825-9
 C3H3,1-propynl  3.102-11
 C3H3,2-propynl  7.4507-8
 C3H4,allene     1.8111-9
 C3H4,propyne    4.2412-9
 C3H4,cyclo-     1.453-11
 C3H5,allyl      5.468-12
 C3H6,propylene  1.161-12
 C3H6,cyclo-     5.402-15
 CNCOCN          4.673-14
 C3O2            8.508-11
 *C4             2.208-12
 C4H2,butadiyne  8.9387-7
 C4H4,1,3-cyclo- 6.349-14
 C4H6,butadiene  7.983-14
 C4H6,1butyne    9.968-15
 C4H6,2butyne    6.497-15
 C4H6,cyclo-     2.256-16
 C4N2            1.1652-8
 *C5             9.769-12
 C5H6,1,3cyclo-  2.095-15
 C6H2            1.4452-9
 C6H5,phenyl     1.389-15
 C6H6            6.400-15
 *H              3.2453-3
 HCN             1.1876-2
 HCO             1.9063-7
 HCCN            1.489-11
 HCCO            2.0035-9
 HNC             9.3838-4
 HNCO            4.4376-8
 HNO             9.008-14
 *H2             1.5353-1
 HCHO,formaldehy 1.8072-8
 HCOOH           2.200-13
 H2O             2.0113-6
 *N              2.0532-8
 NCO             5.279-10
 *NH             1.9538-8
 NH2             4.9592-8
 NH3             6.0831-7
 *NO             6.001-10
 *N2             5.1948-1
 NCN             8.826-11
 N2H2            1.151-12
 N2O             2.758-14
 N3              1.802-14
 N3H             2.241-14
 *O              9.521-11
 *OH             7.3405-9
 *O2             5.220-16
 C(gr)           3.0719-2

  * THERMODYNAMIC PROPERTIES FITTED TO 20000.K









         THERMODYNAMIC EQUILIBRIUM COMBUSTION PROPERTIES AT ASSIGNED

                                   PRESSURES

 CASE =                

             REACTANT                       MOLES         ENERGY      TEMP
                                                         KJ/KG-MOL      K
 FUEL        C2H2,acetylene               1.0000000    228281.530    300.000
 OXIDANT     O2                           2.5000000        54.358    300.000
 OXIDANT     N2                           9.4048000        53.881    300.000

 O/F=    4.39700  %FUEL= 18.528827  R,EQ.RATIO= 3.000000  PHI,EQ.RATIO= 3.000000

 THERMODYNAMIC PROPERTIES

 P, BAR            1.0000
 T, K             2281.59
 RHO, KG/CU M    1.2745-1
 H, KJ/KG         1626.04
 U, KJ/KG          841.45
 G, KJ/KG        -22858.1
 S, KJ/(KG)(K)    10.7312

 M, (1/n)          24.179
 MW, MOL WT        23.197
 (dLV/dLP)t      -1.00090
 (dLV/dLT)p        1.0211
 Cp, KJ/(KG)(K)    1.9877
 GAMMAs            1.2188
 SON VEL,M/SEC      977.9

 MOLE FRACTIONS

 *C              5.9298-9
 *CH             5.1158-9
 CH2             8.8926-8
 CH3             2.3677-6
 CH2OH           5.065-13
 CH3O            6.722-14
 CH4             5.8136-6
 CH3OH           1.929-13
 *CN             1.0747-5
 CNN             1.990-13
 *CO             2.7513-1
 *CO2            6.2978-7
 COOH            4.213-13
 *C2             9.905-10
 C2H             5.8546-7
 C2H2,acetylene  6.1776-4
 C2H2,vinylidene 2.1364-7
 CH2CO,ketene    4.0192-8
 O(CH)2O         3.498-16
 C2H3,vinyl      2.9016-8
 CH3CN           1.5463-7
 CH3CO,acetyl    4.047-12
 C2H4            1.7386-7
 CH3CHO,ethanal  3.708-13
 C2H5            1.379-11
 C2H6            5.148-12
 CCN             2.435-12
 CNC             1.0558-9
 OCCN            1.1911-9
 C2N2            9.4250-6
 C2O             1.1166-8
 *C3             1.1397-8
 C3H3,1-propynl  3.484-11
 C3H3,2-propynl  8.1877-8
 C3H4,allene     1.9607-9
 C3H4,propyne    4.5849-9
 C3H4,cyclo-     1.600-11
 C3H5,allyl      5.972-12
 C3H6,propylene  1.246-12
 C3H6,cyclo-     5.845-15
 CNCOCN          4.922-14
 C3O2            8.569-11
 *C4             2.681-12
 C4H2,butadiyne  9.9326-7
 C4H4,1,3-cyclo- 7.145-14
 C4H6,butadiene  8.763-14
 C4H6,1butyne    1.103-14
 C4H6,2butyne    7.152-15
 C4H6,cyclo-     2.492-16
 C4N2            1.2746-8
 *C5             1.191-11
 C5H6,1,3cyclo-  2.304-15
 C6H2            1.6789-9
 C6H5,phenyl     1.569-15
 C6H6            6.961-15
 *H              3.4082-3
 HCN             1.2188-2
 HCO             1.9602-7
 HCCN            1.683-11
 HCCO            2.1175-9
 HNC             9.7502-4
 HNCO            4.4100-8
 HNO             9.370-14
 *H2             1.5615-1
 HCHO,formaldehy 1.8269-8
 HCOOH           2.153-13
 H2O             1.9812-6
 *N              2.2306-8
 NCO             5.447-10
 *NH             2.0990-8
 NH2             5.2171-8
 NH3             6.1833-7
 *NO             6.143-10
 *N2             5.1091-1
 NCN             9.605-11
 N2H2            1.215-12
 N2O             2.814-14
 N3              1.931-14
 N3H             2.365-14
 *O              1.010-10
 *OH             7.5541-9
 *O2             5.360-16
 C(gr)           4.0586-2

  * THERMODYNAMIC PROPERTIES FITTED TO 20000.K









         THERMODYNAMIC EQUILIBRIUM COMBUSTION PROPERTIES AT ASSIGNED

                                   PRESSURES

 CASE =                

             REACTANT                       MOLES         ENERGY      TEMP
                                                         KJ/KG-MOL      K
 FUEL        C2H2,acetylene               1.0000000    228281.530    300.000
 OXIDANT     O2                           2.5000000        54.358    300.000
 OXIDANT     N2                           9.4048000        53.881    300.000

 O/F=    4.25516  %FUEL= 19.028927  R,EQ.RATIO= 3.100000  PHI,EQ.RATIO= 3.100000

 THERMODYNAMIC PROPERTIES

 P, BAR            1.0000
 T, K             2289.94
 RHO, KG/CU M    1.2703-1
 H, KJ/KG         1669.87
 U, KJ/KG          882.67
 G, KJ/KG        -22931.9
 S, KJ/(KG)(K)    10.7434

 M, (1/n)          24.186
 MW, MOL WT        22.974
 (dLV/dLP)t      -1.00095
 (dLV/dLT)p        1.0223
 Cp, KJ/(KG)(K)    2.0161
 GAMMAs            1.2154
 SON VEL,M/SEC      978.2

 MOLE FRACTIONS

 *C              6.7365-9
 *CH             5.7493-9
 CH2             9.7205-8
 CH3             2.5008-6
 CH2OH           5.274-13
 CH3O            7.057-14
 CH4             5.9658-6
 CH3OH           1.963-13
 *CN             1.1522-5
 CNN             2.214-13
 *CO             2.7080-1
 *CO2            5.9816-7
 COOH            4.195-13
 *C2             1.1484-9
 C2H             6.5396-7
 C2H2,acetylene  6.5488-4
 C2H2,vinylidene 2.3433-7
 CH2CO,ketene    4.1082-8
 O(CH)2O         3.532-16
 C2H3,vinyl      3.1535-8
 CH3CN           1.6038-7
 CH3CO,acetyl    4.225-12
 C2H4            1.8257-7
 CH3CHO,ethanal  3.800-13
 C2H5            1.485-11
 C2H6            5.403-12
 CCN             2.802-12
 CNC             1.1877-9
 OCCN            1.2440-9
 C2N2            9.8453-6
 C2O             1.1883-8
 *C3             1.3193-8
 C3H3,1-propynl  3.895-11
 C3H3,2-propynl  8.9623-8
 C3H4,allene     2.1157-9
 C3H4,propyne    4.9403-9
 C3H4,cyclo-     1.755-11
 C3H5,allyl      6.500-12
 C3H6,propylene  1.335-12
 C3H6,cyclo-     6.304-15
 CNCOCN          5.170-14
 C3O2            8.624-11
 *C4             3.230-12
 C4H2,butadiyne  1.0989-6
 C4H4,1,3-cyclo- 8.000-14
 C4H6,butadiene  9.584-14
 C4H6,1butyne    1.215-14
 C4H6,2butyne    7.843-15
 C4H6,cyclo-     2.742-16
 C4N2            1.3886-8
 *C5             1.440-11
 C5H6,1,3cyclo-  2.525-15
 C6H2            1.9384-9
 C6H5,phenyl     1.763-15
 C6H6            7.546-15
 *H              3.5718-3
 HCN             1.2491-2
 HCO             2.0126-7
 HCCN            1.893-11
 HCCO            2.2323-9
 HNC             1.0112-3
 HNCO            4.3815-8
 HNO             9.727-14
 *H2             1.5869-1
 HCHO,formaldehy 1.8453-8
 HCOOH           2.107-13
 H2O             1.9520-6
 *N              2.4146-8
 NCO             5.611-10
 *NH             2.2480-8
 NH2             5.4758-8
 NH3             6.2796-7
 *NO             6.278-10
 *N2             5.0261-1
 NCN             1.041-10
 N2H2            1.279-12
 N2O             2.866-14
 N3              2.063-14
 N3H             2.489-14
 *O              1.069-10
 *OH             7.7622-9
 *O2             5.495-16
 C(gr)           5.0137-2

  * THERMODYNAMIC PROPERTIES FITTED TO 20000.K









         THERMODYNAMIC EQUILIBRIUM COMBUSTION PROPERTIES AT ASSIGNED

                                   PRESSURES

 CASE =                

             REACTANT                       MOLES         ENERGY      TEMP
                                                         KJ/KG-MOL      K
 FUEL        C2H2,acetylene               1.0000000    228281.530    300.000
 OXIDANT     O2                           2.5000000        54.358    300.000
 OXIDANT     N2                           9.4048000        53.881    300.000

 O/F=    4.12218  %FUEL= 19.522924  R,EQ.RATIO= 3.200000  PHI,EQ.RATIO= 3.200000

 THERMODYNAMIC PROPERTIES

 P, BAR            1.0000
 T, K             2298.02
 RHO, KG/CU M    1.2662-1
 H, KJ/KG         1713.18
 U, KJ/KG          923.44
 G, KJ/KG        -23003.1
 S, KJ/(KG)(K)    10.7554

 M, (1/n)          24.194
 MW, MOL WT        22.757
 (dLV/dLP)t      -1.00100
 (dLV/dLT)p        1.0234
 Cp, KJ/(KG)(K)    2.0443
 GAMMAs            1.2122
 SON VEL,M/SEC      978.4

 MOLE FRACTIONS

 *C              7.6133-9
 *CH             6.4306-9
 CH2             1.0587-7
 CH3             2.6355-6
 CH2OH           5.481-13
 CH3O            7.393-14
 CH4             6.1151-6
 CH3OH           1.996-13
 *CN             1.2317-5
 CNN             2.451-13
 *CO             2.6661-1
 *CO2            5.6896-7
 COOH            4.176-13
 *C2             1.3234-9
 C2H             7.2719-7
 C2H2,acetylene  6.9254-4
 C2H2,vinylidene 2.5605-7
 CH2CO,ketene    4.1941-8
 O(CH)2O         3.563-16
 C2H3,vinyl      3.4157-8
 CH3CN           1.6607-7
 CH3CO,acetyl    4.401-12
 C2H4            1.9133-7
 CH3CHO,ethanal  3.890-13
 C2H5            1.595-11
 C2H6            5.659-12
 CCN             3.206-12
 CNC             1.3297-9
 OCCN            1.2964-9
 C2N2            1.0263-5
 C2O             1.2611-8
 *C3             1.5182-8
 C3H3,1-propynl  4.334-11
 C3H3,2-propynl  9.7742-8
 C3H4,allene     2.2759-9
 C3H4,propyne    5.3071-9
 C3H4,cyclo-     1.918-11
 C3H5,allyl      7.049-12
 C3H6,propylene  1.425-12
 C3H6,cyclo-     6.778-15
 CNCOCN          5.417-14
 C3O2            8.672-11
 *C4             3.862-12
 C4H2,butadiyne  1.2107-6
 C4H4,1,3-cyclo- 8.918-14
 C4H6,butadiene  1.044-13
 C4H6,1butyne    1.333-14
 C4H6,2butyne    8.569-15
 C4H6,cyclo-     3.005-16
 C4N2            1.5072-8
 *C5             1.727-11
 C5H6,1,3cyclo-  2.756-15
 C6H2            2.2251-9
 C6H5,phenyl     1.972-15
 C6H6            8.153-15
 *H              3.7357-3
 HCN             1.2785-2
 HCO             2.0635-7
 HCCN            2.118-11
 HCCO            2.3475-9
 HNC             1.0470-3
 HNCO            4.3523-8
 HNO             1.008-13
 *H2             1.6114-1
 HCHO,formaldehy 1.8626-8
 HCOOH           2.063-13
 H2O             1.9238-6
 *N              2.6049-8
 NCO             5.769-10
 *NH             2.4004-8
 NH2             5.7350-8
 NH3             6.3720-7
 *NO             6.408-10
 *N2             4.9456-1
 NCN             1.125-10
 N2H2            1.344-12
 N2O             2.916-14
 N3              2.197-14
 N3H             2.613-14
 *O              1.129-10
 *OH             7.9648-9
 *O2             5.626-16
 C(gr)           5.9388-2

  * THERMODYNAMIC PROPERTIES FITTED TO 20000.K









         THERMODYNAMIC EQUILIBRIUM COMBUSTION PROPERTIES AT ASSIGNED

                                   PRESSURES

 CASE =                

             REACTANT                       MOLES         ENERGY      TEMP
                                                         KJ/KG-MOL      K
 FUEL        C2H2,acetylene               1.0000000    228281.530    300.000
 OXIDANT     O2                           2.5000000        54.358    300.000
 OXIDANT     N2                           9.4048000        53.881    300.000

 O/F=    3.99727  %FUEL= 20.010931  R,EQ.RATIO= 3.300000  PHI,EQ.RATIO= 3.300000

 THERMODYNAMIC PROPERTIES

 P, BAR            1.0000
 T, K             2305.85
 RHO, KG/CU M    1.2623-1
 H, KJ/KG         1755.95
 U, KJ/KG          963.77
 G, KJ/KG        -23071.6
 S, KJ/(KG)(K)    10.7672

 M, (1/n)          24.202
 MW, MOL WT        22.547
 (dLV/dLP)t      -1.00106
 (dLV/dLT)p        1.0246
 Cp, KJ/(KG)(K)    2.0724
 GAMMAs            1.2092
 SON VEL,M/SEC      978.7

 MOLE FRACTIONS

 *C              8.5624-9
 *CH             7.1606-9
 CH2             1.1491-7
 CH3             2.7714-6
 CH2OH           5.686-13
 CH3O            7.729-14
 CH4             6.2618-6
 CH3OH           2.027-13
 *CN             1.3128-5
 CNN             2.702-13
 *CO             2.6255-1
 *CO2            5.4195-7
 COOH            4.156-13
 *C2             1.5165-9
 C2H             8.0520-7
 C2H2,acetylene  7.3070-4
 C2H2,vinylidene 2.7879-7
 CH2CO,ketene    4.2771-8
 O(CH)2O         3.591-16
 C2H3,vinyl      3.6879-8
 CH3CN           1.7170-7
 CH3CO,acetyl    4.577-12
 C2H4            2.0014-7
 CH3CHO,ethanal  3.978-13
 C2H5            1.708-11
 C2H6            5.917-12
 CCN             3.648-12
 CNC             1.4817-9
 OCCN            1.3483-9
 C2N2            1.0676-5
 C2O             1.3348-8
 *C3             1.7374-8
 C3H3,1-propynl  4.802-11
 C3H3,2-propynl  1.0623-7
 C3H4,allene     2.4411-9
 C3H4,propyne    5.6849-9
 C3H4,cyclo-     2.089-11
 C3H5,allyl      7.621-12
 C3H6,propylene  1.518-12
 C3H6,cyclo-     7.267-15
 CNCOCN          5.663-14
 C3O2            8.713-11
 *C4             4.585-12
 C4H2,butadiyne  1.3288-6
 C4H4,1,3-cyclo- 9.898-14
 C4H6,butadiene  1.134-13
 C4H6,1butyne    1.458-14
 C4H6,2butyne    9.330-15
 C4H6,cyclo-     3.281-16
 C4N2            1.6301-8
 *C5             2.057-11
 C5H6,1,3cyclo-  2.998-15
 C6H2            2.5403-9
 C6H5,phenyl     2.196-15
 C6H6            8.783-15
 *H              3.8998-3
 HCN             1.3072-2
 HCO             2.1130-7
 HCCN            2.359-11
 HCCO            2.4631-9
 HNC             1.0823-3
 HNCO            4.3225-8
 HNO             1.042-13
 *H2             1.6351-1
 HCHO,formaldehy 1.8789-8
 HCOOH           2.020-13
 H2O             1.8964-6
 *N              2.8012-8
 NCO             5.924-10
 *NH             2.5560-8
 NH2             5.9943-8
 NH3             6.4608-7
 *NO             6.533-10
 *N2             4.8676-1
 NCN             1.211-10
 N2H2            1.408-12
 N2O             2.963-14
 N3              2.332-14
 N3H             2.737-14
 *O              1.189-10
 *OH             8.1618-9
 *O2             5.751-16
 C(gr)           6.8352-2

  * THERMODYNAMIC PROPERTIES FITTED TO 20000.K









         THERMODYNAMIC EQUILIBRIUM COMBUSTION PROPERTIES AT ASSIGNED

                                   PRESSURES

 CASE =                

             REACTANT                       MOLES         ENERGY      TEMP
                                                         KJ/KG-MOL      K
 FUEL        C2H2,acetylene               1.0000000    228281.530    300.000
 OXIDANT     O2                           2.5000000        54.358    300.000
 OXIDANT     N2                           9.4048000        53.881    300.000

 O/F=    3.87970  %FUEL= 20.493054  R,EQ.RATIO= 3.400000  PHI,EQ.RATIO= 3.400000

 THERMODYNAMIC PROPERTIES

 P, BAR            1.0000
 T, K             2313.43
 RHO, KG/CU M    1.2586-1
 H, KJ/KG         1798.21
 U, KJ/KG         1003.67
 G, KJ/KG        -23137.7
 S, KJ/(KG)(K)    10.7788

 M, (1/n)          24.209
 MW, MOL WT        22.344
 (dLV/dLP)t      -1.00111
 (dLV/dLT)p        1.0258
 Cp, KJ/(KG)(K)    2.1004
 GAMMAs            1.2062
 SON VEL,M/SEC      979.0

 MOLE FRACTIONS

 *C              9.5854-9
 *CH             7.9400-9
 CH2             1.2432-7
 CH3             2.9085-6
 CH2OH           5.889-13
 CH3O            8.064-14
 CH4             6.4060-6
 CH3OH           2.058-13
 *CN             1.3956-5
 CNN             2.966-13
 *CO             2.5861-1
 *CO2            5.1690-7
 COOH            4.134-13
 *C2             1.7286-9
 C2H             8.8801-7
 C2H2,acetylene  7.6930-4
 C2H2,vinylidene 3.0253-7
 CH2CO,ketene    4.3572-8
 O(CH)2O         3.617-16
 C2H3,vinyl      3.9699-8
 CH3CN           1.7726-7
 CH3CO,acetyl    4.751-12
 C2H4            2.0897-7
 CH3CHO,ethanal  4.063-13
 C2H5            1.824-11
 C2H6            6.176-12
 CCN             4.130-12
 CNC             1.6438-9
 OCCN            1.3995-9
 C2N2            1.1086-5
 C2O             1.4092-8
 *C3             1.9777-8
 C3H3,1-propynl  5.300-11
 C3H3,2-propynl  1.1508-7
 C3H4,allene     2.6112-9
 C3H4,propyne    6.0734-9
 C3H4,cyclo-     2.267-11
 C3H5,allyl      8.215-12
 C3H6,propylene  1.613-12
 C3H6,cyclo-     7.771-15
 CNCOCN          5.906-14
 C3O2            8.749-11
 *C4             5.407-12
 C4H2,butadiyne  1.4531-6
 C4H4,1,3-cyclo- 1.094-13
 C4H6,butadiene  1.228-13
 C4H6,1butyne    1.588-14
 C4H6,2butyne    1.013-14
 C4H6,cyclo-     3.571-16
 C4N2            1.7572-8
 *C5             2.434-11
 C5H6,1,3cyclo-  3.251-15
 C6H2            2.8853-9
 C6H5,phenyl     2.435-15
 C6H6            9.434-15
 *H              4.0640-3
 HCN             1.3351-2
 HCO             2.1610-7
 HCCN            2.616-11
 HCCO            2.5789-9
 HNC             1.1172-3
 HNCO            4.2922-8
 HNO             1.076-13
 *H2             1.6580-1
 HCHO,formaldehy 1.8940-8
 HCOOH           1.979-13
 H2O             1.8699-6
 *N              3.0033-8
 NCO             6.073-10
 *NH             2.7146-8
 NH2             6.2536-8
 NH3             6.5461-7
 *NO             6.652-10
 *N2             4.7920-1
 NCN             1.299-10
 N2H2            1.473-12
 N2O             3.008-14
 N3              2.469-14
 N3H             2.861-14
 *O              1.249-10
 *OH             8.3534-9
 *O2             5.871-16
 C(gr)           7.7043-2

  * THERMODYNAMIC PROPERTIES FITTED TO 20000.K









         THERMODYNAMIC EQUILIBRIUM COMBUSTION PROPERTIES AT ASSIGNED

                                   PRESSURES

 CASE =                

             REACTANT                       MOLES         ENERGY      TEMP
                                                         KJ/KG-MOL      K
 FUEL        C2H2,acetylene               1.0000000    228281.530    300.000
 OXIDANT     O2                           2.5000000        54.358    300.000
 OXIDANT     N2                           9.4048000        53.881    300.000

 O/F=    3.76885  %FUEL= 20.969401  R,EQ.RATIO= 3.500000  PHI,EQ.RATIO= 3.500000

 THERMODYNAMIC PROPERTIES

 P, BAR            1.0000
 T, K             2320.78
 RHO, KG/CU M    1.2550-1
 H, KJ/KG         1839.97
 U, KJ/KG         1043.14
 G, KJ/KG        -23201.5
 S, KJ/(KG)(K)    10.7901

 M, (1/n)          24.216
 MW, MOL WT        22.146
 (dLV/dLP)t      -1.00117
 (dLV/dLT)p        1.0270
 Cp, KJ/(KG)(K)    2.1282
 GAMMAs            1.2034
 SON VEL,M/SEC      979.2

 MOLE FRACTIONS

 *C              1.0684-8
 *CH             8.7693-9
 CH2             1.3410-7
 CH3             3.0467-6
 CH2OH           6.089-13
 CH3O            8.399-14
 CH4             6.5476-6
 CH3OH           2.087-13
 *CN             1.4798-5
 CNN             3.244-13
 *CO             2.5479-1
 *CO2            4.9363-7
 COOH            4.111-13
 *C2             1.9604-9
 C2H             9.7566-7
 C2H2,acetylene  8.0831-4
 C2H2,vinylidene 3.2726-7
 CH2CO,ketene    4.4345-8
 O(CH)2O         3.640-16
 C2H3,vinyl      4.2615-8
 CH3CN           1.8275-7
 CH3CO,acetyl    4.923-12
 C2H4            2.1784-7
 CH3CHO,ethanal  4.145-13
 C2H5            1.943-11
 C2H6            6.436-12
 CCN             4.653-12
 CNC             1.8163-9
 OCCN            1.4500-9
 C2N2            1.1491-5
 C2O             1.4843-8
 *C3             2.2400-8
 C3H3,1-propynl  5.828-11
 C3H3,2-propynl  1.2428-7
 C3H4,allene     2.7860-9
 C3H4,propyne    6.4722-9
 C3H4,cyclo-     2.453-11
 C3H5,allyl      8.830-12
 C3H6,propylene  1.710-12
 C3H6,cyclo-     8.290-15
 CNCOCN          6.148-14
 C3O2            8.779-11
 *C4             6.336-12
 C4H2,butadiyne  1.5835-6
 C4H4,1,3-cyclo- 1.205-13
 C4H6,butadiene  1.326-13
 C4H6,1butyne    1.725-14
 C4H6,2butyne    1.096-14
 C4H6,cyclo-     3.875-16
 C4N2            1.8882-8
 *C5             2.861-11
 C5H6,1,3cyclo-  3.515-15
 C6H2            3.2612-9
 C6H5,phenyl     2.690-15
 C6H6            1.011-14
 *H              4.2281-3
 HCN             1.3621-2
 HCO             2.2076-7
 HCCN            2.889-11
 HCCO            2.6947-9
 HNC             1.1515-3
 HNCO            4.2615-8
 HNO             1.109-13
 *H2             1.6802-1
 HCHO,formaldehy 1.9082-8
 HCOOH           1.939-13
 H2O             1.8443-6
 *N              3.2108-8
 NCO             6.218-10
 *NH             2.8760-8
 NH2             6.5125-8
 NH3             6.6282-7
 *NO             6.767-10
 *N2             4.7186-1
 NCN             1.390-10
 N2H2            1.537-12
 N2O             3.049-14
 N3              2.608-14
 N3H             2.984-14
 *O              1.309-10
 *OH             8.5396-9
 *O2             5.986-16
 C(gr)           8.5474-2

  * THERMODYNAMIC PROPERTIES FITTED TO 20000.K









         THERMODYNAMIC EQUILIBRIUM COMBUSTION PROPERTIES AT ASSIGNED

                                   PRESSURES

 CASE =                

             REACTANT                       MOLES         ENERGY      TEMP
                                                         KJ/KG-MOL      K
 FUEL        C2H2,acetylene               1.0000000    228281.530    300.000
 OXIDANT     O2                           2.5000000        54.358    300.000
 OXIDANT     N2                           9.4048000        53.881    300.000

 O/F=    3.66416  %FUEL= 21.440074  R,EQ.RATIO= 3.600000  PHI,EQ.RATIO= 3.600000

 THERMODYNAMIC PROPERTIES

 P, BAR            1.0000
 T, K             2327.90
 RHO, KG/CU M    1.2515-1
 H, KJ/KG         1881.23
 U, KJ/KG         1082.19
 G, KJ/KG        -23263.1
 S, KJ/(KG)(K)    10.8013

 M, (1/n)          24.223
 MW, MOL WT        21.955
 (dLV/dLP)t      -1.00122
 (dLV/dLT)p        1.0282
 Cp, KJ/(KG)(K)    2.1558
 GAMMAs            1.2006
 SON VEL,M/SEC      979.5

 MOLE FRACTIONS

 *C              1.1860-8
 *CH             9.6491-9
 CH2             1.4423-7
 CH3             3.1859-6
 CH2OH           6.288-13
 CH3O            8.732-14
 CH4             6.6869-6
 CH3OH           2.115-13
 *CN             1.5654-5
 CNN             3.535-13
 *CO             2.5108-1
 *CO2            4.7197-7
 COOH            4.088-13
 *C2             2.2128-9
 C2H             1.0682-6
 C2H2,acetylene  8.4769-4
 C2H2,vinylidene 3.5297-7
 CH2CO,ketene    4.5091-8
 O(CH)2O         3.662-16
 C2H3,vinyl      4.5622-8
 CH3CN           1.8817-7
 CH3CO,acetyl    5.095-12
 C2H4            2.2673-7
 CH3CHO,ethanal  4.226-13
 C2H5            2.065-11
 C2H6            6.697-12
 CCN             5.217-12
 CNC             1.9990-9
 OCCN            1.4998-9
 C2N2            1.1892-5
 C2O             1.5600-8
 *C3             2.5252-8
 C3H3,1-propynl  6.385-11
 C3H3,2-propynl  1.3384-7
 C3H4,allene     2.9653-9
 C3H4,propyne    6.8808-9
 C3H4,cyclo-     2.647-11
 C3H5,allyl      9.466-12
 C3H6,propylene  1.809-12
 C3H6,cyclo-     8.822-15
 CNCOCN          6.386-14
 C3O2            8.804-11
 *C4             7.381-12
 C4H2,butadiyne  1.7201-6
 C4H4,1,3-cyclo- 1.322-13
 C4H6,butadiene  1.428-13
 C4H6,1butyne    1.869-14
 C4H6,2butyne    1.182-14
 C4H6,cyclo-     4.192-16
 C4N2            2.0229-8
 *C5             3.343-11
 C5H6,1,3cyclo-  3.790-15
 C6H2            3.6694-9
 C6H5,phenyl     2.960-15
 C6H6            1.080-14
 *H              4.3920-3
 HCN             1.3884-2
 HCO             2.2528-7
 HCCN            3.179-11
 HCCO            2.8103-9
 HNC             1.1853-3
 HNCO            4.2306-8
 HNO             1.142-13
 *H2             1.7018-1
 HCHO,formaldehy 1.9215-8
 HCOOH           1.901-13
 H2O             1.8194-6
 *N              3.4235-8
 NCO             6.359-10
 *NH             3.0398-8
 NH2             6.7708-8
 NH3             6.7072-7
 *NO             6.876-10
 *N2             4.6473-1
 NCN             1.483-10
 N2H2            1.602-12
 N2O             3.089-14
 N3              2.747-14
 N3H             3.106-14
 *O              1.369-10
 *OH             8.7203-9
 *O2             6.095-16
 C(gr)           9.3655-2

  * THERMODYNAMIC PROPERTIES FITTED TO 20000.K



