
 *******************************************************************************

         NASA-GLENN CHEMICAL EQUILIBRIUM PROGRAM CEA2, MAY 21, 2004
                   BY  BONNIE MCBRIDE AND SANFORD GORDON
      REFS: NASA RP-1311, PART I, 1994 AND NASA RP-1311, PART II, 1996

 *******************************************************************************



 problem    phi,eq.ratio=0.5,0.6,0.7,0.8,0.9,1,1.1,1.2,1.3,1.4,1.5,1.6,1.7,1.8,1.
 9,2,
       hp   p,bar=1,  t,k=3800
 react
   fuel=C2H2,acetylene moles=1  t,k=300
   oxid=O2 moles=2.5  t,k=300
 output  short   trace=1e-16
 end




         THERMODYNAMIC EQUILIBRIUM COMBUSTION PROPERTIES AT ASSIGNED

                                   PRESSURES

 CASE =                

             REACTANT                       MOLES         ENERGY      TEMP
                                                         KJ/KG-MOL      K
 FUEL        C2H2,acetylene               1.0000000    228281.530    300.000
 OXIDANT     O2                           2.5000000        54.358    300.000

 O/F=    6.14480  %FUEL= 13.996184  R,EQ.RATIO= 0.500000  PHI,EQ.RATIO= 0.500000

 THERMODYNAMIC PROPERTIES

 P, BAR            1.0000
 T, K             3103.38
 RHO, KG/CU M    1.1057-1
 H, KJ/KG         1228.57
 U, KJ/KG          324.15
 G, KJ/KG        -30828.5
 S, KJ/(KG)(K)    10.3298

 M, (1/n)          28.530
 (dLV/dLP)t      -1.06245
 (dLV/dLT)p        2.2661
 Cp, KJ/(KG)(K)    9.0219
 GAMMAs            1.1154
 SON VEL,M/SEC     1004.4

 MOLE FRACTIONS

 *C              1.303-11
 *CH             4.799-13
 CH2             1.025-13
 CH3             2.132-14
 CH2OH           1.188-14
 CH3O            3.000-15
 CH4             6.458-16
 *CO             1.3278-1
 *CO2            1.7394-1
 COOH            3.3580-7
 CH2CO,ketene    2.632-16
 C2O             1.563-13
 *H              2.0809-2
 HCO             1.9007-7
 HCCO            1.381-15
 HO2             8.0003-5
 *H2             9.3688-3
 HCHO,formaldehy 5.143-10
 HCOOH           4.6705-9
 H2O             9.3365-2
 H2O2            1.1835-6
 *O              9.9534-2
 *OH             8.0361-2
 *O2             3.8976-1
 O3              4.1166-7

  * THERMODYNAMIC PROPERTIES FITTED TO 20000.K









         THERMODYNAMIC EQUILIBRIUM COMBUSTION PROPERTIES AT ASSIGNED

                                   PRESSURES

 CASE =                

             REACTANT                       MOLES         ENERGY      TEMP
                                                         KJ/KG-MOL      K
 FUEL        C2H2,acetylene               1.0000000    228281.530    300.000
 OXIDANT     O2                           2.5000000        54.358    300.000

 O/F=    5.12067  %FUEL= 16.338079  R,EQ.RATIO= 0.600000  PHI,EQ.RATIO= 0.600000

 THERMODYNAMIC PROPERTIES

 P, BAR            1.0000
 T, K             3175.62
 RHO, KG/CU M    1.0377-1
 H, KJ/KG         1433.86
 U, KJ/KG          470.21
 G, KJ/KG        -32507.3
 S, KJ/(KG)(K)    10.6880

 M, (1/n)          27.400
 (dLV/dLP)t      -1.07476
 (dLV/dLT)p        2.4725
 Cp, KJ/(KG)(K)   10.3901
 GAMMAs            1.1158
 SON VEL,M/SEC     1036.9

 MOLE FRACTIONS

 *C              4.113-11
 *CH             1.644-12
 CH2             3.519-13
 CH3             7.138-14
 CH2OH           3.073-14
 CH3O            8.110-15
 CH4             2.185-15
 CH3OH           2.216-16
 *CO             1.7887-1
 *CO2            1.6499-1
 COOH            4.5091-7
 CH2CO,ketene    9.253-16
 C2O             5.083-13
 *H              3.0839-2
 HCO             3.5448-7
 HCCO            4.899-15
 HO2             7.8195-5
 *H2             1.3713-2
 HCHO,formaldehy 1.0172-9
 HCOOH           6.6257-9
 H2O             9.7945-2
 H2O2            1.2276-6
 *O              1.1172-1
 *OH             8.9621-2
 *O2             3.1222-1
 O3              3.4428-7

  * THERMODYNAMIC PROPERTIES FITTED TO 20000.K









         THERMODYNAMIC EQUILIBRIUM COMBUSTION PROPERTIES AT ASSIGNED

                                   PRESSURES

 CASE =                

             REACTANT                       MOLES         ENERGY      TEMP
                                                         KJ/KG-MOL      K
 FUEL        C2H2,acetylene               1.0000000    228281.530    300.000
 OXIDANT     O2                           2.5000000        54.358    300.000

 O/F=    4.38915  %FUEL= 18.555815  R,EQ.RATIO= 0.700000  PHI,EQ.RATIO= 0.700000

 THERMODYNAMIC PROPERTIES

 P, BAR            1.0000
 T, K             3230.83
 RHO, KG/CU M    9.8213-2
 H, KJ/KG         1628.26
 U, KJ/KG          610.07
 G, KJ/KG        -33964.5
 S, KJ/(KG)(K)    11.0166

 M, (1/n)          26.383
 (dLV/dLP)t      -1.08393
 (dLV/dLT)p        2.6157
 Cp, KJ/(KG)(K)   11.4345
 GAMMAs            1.1169
 SON VEL,M/SEC     1066.4

 MOLE FRACTIONS

 *C              9.852-11
 *CH             4.236-12
 CH2             9.190-13
 CH3             1.854-13
 CH2OH           6.402-14
 CH3O            1.746-14
 CH4             5.793-15
 CH3OH           4.784-16
 *CO             2.2230-1
 *CO2            1.5374-1
 COOH            5.4909-7
 C2H2,acetylene  1.389-16
 CH2CO,ketene    2.457-15
 C2O             1.243-12
 C3O2            1.381-16
 *H              4.1684-2
 HCO             5.6649-7
 HCCO            1.293-14
 HO2             7.3221-5
 *H2             1.8599-2
 HCHO,formaldehy 1.7190-9
 HCOOH           8.5080-9
 H2O             1.0087-1
 H2O2            1.2160-6
 *O              1.1793-1
 *OH             9.5331-2
 *O2             2.4947-1
 O3              2.7570-7

  * THERMODYNAMIC PROPERTIES FITTED TO 20000.K









         THERMODYNAMIC EQUILIBRIUM COMBUSTION PROPERTIES AT ASSIGNED

                                   PRESSURES

 CASE =                

             REACTANT                       MOLES         ENERGY      TEMP
                                                         KJ/KG-MOL      K
 FUEL        C2H2,acetylene               1.0000000    228281.530    300.000
 OXIDANT     O2                           2.5000000        54.358    300.000

 O/F=    3.84050  %FUEL= 20.659010  R,EQ.RATIO= 0.800000  PHI,EQ.RATIO= 0.800000

 THERMODYNAMIC PROPERTIES

 P, BAR            1.0000
 T, K             3274.70
 RHO, KG/CU M    9.3539-2
 H, KJ/KG         1812.62
 U, KJ/KG          743.55
 G, KJ/KG        -35256.1
 S, KJ/(KG)(K)    11.3197

 M, (1/n)          25.468
 (dLV/dLP)t      -1.09052
 (dLV/dLT)p        2.7098
 Cp, KJ/(KG)(K)   12.2150
 GAMMAs            1.1182
 SON VEL,M/SEC     1093.4

 MOLE FRACTIONS

 *C              1.984-10
 *CH             9.115-12
 CH2             2.018-12
 CH3             4.095-13
 CH2OH           1.161-13
 CH3O            3.246-14
 CH4             1.314-14
 CH3OH           9.006-16
 *CO             2.6264-1
 *CO2            1.4151-1
 COOH            6.2741-7
 C2H             2.206-16
 C2H2,acetylene  3.987-16
 CH2CO,ketene    5.464-15
 C2O             2.544-12
 C3O2            2.943-16
 *H              5.3112-2
 HCO             8.2054-7
 HCCO            2.833-14
 HO2             6.6503-5
 *H2             2.3996-2
 HCHO,formaldehy 2.6258-9
 HCOOH           1.0230-8
 H2O             1.0238-1
 H2O2            1.1648-6
 *O              1.1957-1
 *OH             9.8208-2
 *O2             1.9851-1
 O3              2.1391-7

  * THERMODYNAMIC PROPERTIES FITTED TO 20000.K









         THERMODYNAMIC EQUILIBRIUM COMBUSTION PROPERTIES AT ASSIGNED

                                   PRESSURES

 CASE =                

             REACTANT                       MOLES         ENERGY      TEMP
                                                         KJ/KG-MOL      K
 FUEL        C2H2,acetylene               1.0000000    228281.530    300.000
 OXIDANT     O2                           2.5000000        54.358    300.000

 O/F=    3.41378  %FUEL= 22.656315  R,EQ.RATIO= 0.900000  PHI,EQ.RATIO= 0.900000

 THERMODYNAMIC PROPERTIES

 P, BAR            1.0000
 T, K             3310.40
 RHO, KG/CU M    8.9535-2
 H, KJ/KG         1987.70
 U, KJ/KG          870.82
 G, KJ/KG        -36414.6
 S, KJ/(KG)(K)    11.6005

 M, (1/n)          24.644
 (dLV/dLP)t      -1.09499
 (dLV/dLT)p        2.7654
 Cp, KJ/(KG)(K)   12.7767
 GAMMAs            1.1198
 SON VEL,M/SEC     1118.3

 MOLE FRACTIONS

 *C              3.553-10
 *CH             1.735-11
 CH2             3.938-12
 CH3             8.098-13
 CH2OH           1.910-13
 CH3O            5.452-14
 CH4             2.678-14
 CH3OH           1.541-15
 *CO             2.9983-1
 *CO2            1.2905-1
 COOH            6.8524-7
 *C2             1.542-16
 C2H             5.597-16
 C2H2,acetylene  9.879-16
 CH2CO,ketene    1.077-14
 O(CH)2O         1.269-16
 C2O             4.612-12
 C3O2            5.511-16
 *H              6.4940-2
 HCO             1.1108-6
 HCCO            5.470-14
 HO2             5.8950-5
 *H2             2.9890-2
 HCHO,formaldehy 3.7402-9
 HCOOH           1.1735-8
 H2O             1.0266-1
 H2O2            1.0865-6
 *O              1.1775-1
 *OH             9.8781-2
 *O2             1.5705-1
 O3              1.6164-7

  * THERMODYNAMIC PROPERTIES FITTED TO 20000.K









         THERMODYNAMIC EQUILIBRIUM COMBUSTION PROPERTIES AT ASSIGNED

                                   PRESSURES

 CASE =                

             REACTANT                       MOLES         ENERGY      TEMP
                                                         KJ/KG-MOL      K
 FUEL        C2H2,acetylene               1.0000000    228281.530    300.000
 OXIDANT     O2                           2.5000000        54.358    300.000

 O/F=    3.07240  %FUEL= 24.555531  R,EQ.RATIO= 1.000000  PHI,EQ.RATIO= 1.000000

 THERMODYNAMIC PROPERTIES

 P, BAR            1.0000
 T, K             3339.82
 RHO, KG/CU M    8.6059-2
 H, KJ/KG         2154.18
 U, KJ/KG          992.19
 G, KJ/KG        -37460.9
 S, KJ/(KG)(K)    11.8615

 M, (1/n)          23.898
 (dLV/dLP)t      -1.09769
 (dLV/dLT)p        2.7901
 Cp, KJ/(KG)(K)   13.1531
 GAMMAs            1.1214
 SON VEL,M/SEC     1141.5

 MOLE FRACTIONS

 *C              5.846-10
 *CH             3.023-11
 CH2             7.057-12
 CH3             1.479-12
 CH2OH           2.930-13
 CH3O            8.500-14
 CH4             5.051-14
 CH3OH           2.458-15
 *CO             3.3396-1
 *CO2            1.1679-1
 COOH            7.2322-7
 *C2             3.431-16
 C2H             1.264-15
 C2H2,acetylene  2.206-15
 CH2CO,ketene    1.947-14
 O(CH)2O         1.937-16
 C2O             7.671-12
 C3O2            9.418-16
 *H              7.7014-2
 HCO             1.4314-6
 HCCO            9.649-14
 HO2             5.1157-5
 *H2             3.6272-2
 HCHO,formaldehy 5.0629-9
 HCOOH           1.2992-8
 H2O             1.0184-1
 H2O2            9.9038-7
 *O              1.1329-1
 *OH             9.7458-2
 *O2             1.2332-1
 O3              1.1919-7

  * THERMODYNAMIC PROPERTIES FITTED TO 20000.K









         THERMODYNAMIC EQUILIBRIUM COMBUSTION PROPERTIES AT ASSIGNED

                                   PRESSURES

 CASE =                

             REACTANT                       MOLES         ENERGY      TEMP
                                                         KJ/KG-MOL      K
 FUEL        C2H2,acetylene               1.0000000    228281.530    300.000
 OXIDANT     O2                           2.5000000        54.358    300.000

 O/F=    2.79309  %FUEL= 26.363709  R,EQ.RATIO= 1.100000  PHI,EQ.RATIO= 1.100000

 THERMODYNAMIC PROPERTIES

 P, BAR            1.0000
 T, K             3364.15
 RHO, KG/CU M    8.3010-2
 H, KJ/KG         2312.69
 U, KJ/KG         1108.02
 G, KJ/KG        -38408.9
 S, KJ/(KG)(K)    12.1046

 M, (1/n)          23.219
 (dLV/dLP)t      -1.09886
 (dLV/dLT)p        2.7895
 Cp, KJ/(KG)(K)   13.3683
 GAMMAs            1.1231
 SON VEL,M/SEC     1163.1

 MOLE FRACTIONS

 *C              9.022-10
 *CH             4.928-11
 CH2             1.186-11
 CH3             2.545-12
 CH2OH           4.257-13
 CH3O            1.252-13
 CH4             8.998-14
 CH3OH           3.717-15
 *CO             3.6522-1
 *CO2            1.0498-1
 COOH            7.4266-7
 *C2             6.969-16
 C2H             2.619-15
 C2H2,acetylene  4.568-15
 CH2CO,ketene    3.303-14
 O(CH)2O         2.786-16
 C2O             1.197-11
 C3O2            1.505-15
 *H              8.9189-2
 HCO             1.7768-6
 HCCO            1.592-13
 HO2             4.3521-5
 *H2             4.3143-2
 HCHO,formaldehy 6.5936-9
 HCOOH           1.3981-8
 H2O             1.0006-1
 H2O2            8.8401-7
 *O              1.0684-1
 *OH             9.4565-2
 *O2             9.5953-2
 O3              8.5772-8

  * THERMODYNAMIC PROPERTIES FITTED TO 20000.K









         THERMODYNAMIC EQUILIBRIUM COMBUSTION PROPERTIES AT ASSIGNED

                                   PRESSURES

 CASE =                

             REACTANT                       MOLES         ENERGY      TEMP
                                                         KJ/KG-MOL      K
 FUEL        C2H2,acetylene               1.0000000    228281.530    300.000
 OXIDANT     O2                           2.5000000        54.358    300.000

 O/F=    2.56034  %FUEL= 28.087242  R,EQ.RATIO= 1.200000  PHI,EQ.RATIO= 1.200000

 THERMODYNAMIC PROPERTIES

 P, BAR            1.0000
 T, K             3384.17
 RHO, KG/CU M    8.0318-2
 H, KJ/KG         2463.77
 U, KJ/KG         1218.71
 G, KJ/KG        -39268.0
 S, KJ/(KG)(K)    12.3315

 M, (1/n)          22.600
 (dLV/dLP)t      -1.09871
 (dLV/dLT)p        2.7676
 Cp, KJ/(KG)(K)   13.4397
 GAMMAs            1.1248
 SON VEL,M/SEC     1183.4

 MOLE FRACTIONS

 *C              1.3251-9
 *CH             7.631-11
 CH2             1.899-11
 CH3             4.187-12
 CH2OH           5.929-13
 CH3O            1.763-13
 CH4             1.535-13
 CH3OH           5.394-15
 *CO             3.9382-1
 *CO2            9.3758-2
 COOH            7.4521-7
 *C2             1.321-15
 C2H             5.086-15
 C2H2,acetylene  8.941-15
 CH2CO,ketene    5.342-14
 O(CH)2O         3.827-16
 C2O             1.778-11
 C3O2            2.285-15
 *H              1.0132-1
 HCO             2.1412-6
 HCCO            2.495-13
 HO2             3.6304-5
 *H2             5.0508-2
 HCHO,formaldehy 8.3319-9
 HCOOH           1.4697-8
 H2O             9.7411-2
 H2O2            7.7318-7
 *O              9.8949-2
 *OH             9.0375-2
 *O2             7.3820-2
 O3              6.0159-8

  * THERMODYNAMIC PROPERTIES FITTED TO 20000.K









         THERMODYNAMIC EQUILIBRIUM COMBUSTION PROPERTIES AT ASSIGNED

                                   PRESSURES

 CASE =                

             REACTANT                       MOLES         ENERGY      TEMP
                                                         KJ/KG-MOL      K
 FUEL        C2H2,acetylene               1.0000000    228281.530    300.000
 OXIDANT     O2                           2.5000000        54.358    300.000

 O/F=    2.36339  %FUEL= 29.731939  R,EQ.RATIO= 1.300000  PHI,EQ.RATIO= 1.300000

 THERMODYNAMIC PROPERTIES

 P, BAR            1.0000
 T, K             3400.37
 RHO, KG/CU M    7.7925-2
 H, KJ/KG         2607.94
 U, KJ/KG         1324.66
 G, KJ/KG        -40045.0
 S, KJ/(KG)(K)    12.5436

 M, (1/n)          22.031
 (dLV/dLP)t      -1.09737
 (dLV/dLT)p        2.7271
 Cp, KJ/(KG)(K)   13.3798
 GAMMAs            1.1266
 SON VEL,M/SEC     1202.4

 MOLE FRACTIONS

 *C              1.8705-9
 *CH             1.134-10
 CH2             2.926-11
 CH3             6.655-12
 CH2OH           7.981-13
 CH3O            2.394-13
 CH4             2.537-13
 CH3OH           7.572-15
 *CO             4.1995-1
 *CO2            8.3195-2
 COOH            7.3268-7
 *C2             2.373-15
 C2H             9.405-15
 C2H2,acetylene  1.679-14
 C2H2,vinylidene 1.188-16
 CH2CO,ketene    8.331-14
 O(CH)2O         5.066-16
 C2O             2.542-11
 C3O2            3.339-15
 *H              1.1327-1
 HCO             2.5193-6
 HCCO            3.761-13
 HO2             2.9672-5
 *H2             5.8378-2
 HCHO,formaldehy 1.0278-8
 HCOOH           1.5138-8
 H2O             9.3985-2
 H2O2            6.6249-7
 *O              9.0038-2
 *OH             8.5120-2
 *O2             5.6025-2
 O3              4.1030-8

  * THERMODYNAMIC PROPERTIES FITTED TO 20000.K









         THERMODYNAMIC EQUILIBRIUM COMBUSTION PROPERTIES AT ASSIGNED

                                   PRESSURES

 CASE =                

             REACTANT                       MOLES         ENERGY      TEMP
                                                         KJ/KG-MOL      K
 FUEL        C2H2,acetylene               1.0000000    228281.530    300.000
 OXIDANT     O2                           2.5000000        54.358    300.000

 O/F=    2.19457  %FUEL= 31.303087  R,EQ.RATIO= 1.400000  PHI,EQ.RATIO= 1.400000

 THERMODYNAMIC PROPERTIES

 P, BAR            1.0000
 T, K             3413.10
 RHO, KG/CU M    7.5791-2
 H, KJ/KG         2745.66
 U, KJ/KG         1426.25
 G, KJ/KG        -40744.4
 S, KJ/(KG)(K)    12.7421

 M, (1/n)          21.508
 (dLV/dLP)t      -1.09496
 (dLV/dLT)p        2.6703
 Cp, KJ/(KG)(K)   13.1981
 GAMMAs            1.1285
 SON VEL,M/SEC     1220.3

 MOLE FRACTIONS

 *C              2.5563-9
 *CH             1.631-10
 CH2             4.375-11
 CH3             1.031-11
 CH2OH           1.044-12
 CH3O            3.154-13
 CH4             4.093-13
 CH3OH           1.035-14
 *CO             4.4385-1
 *CO2            7.3310-2
 COOH            7.0689-7
 *C2             4.088-15
 C2H             1.675-14
 C2H2,acetylene  3.061-14
 C2H2,vinylidene 2.214-16
 CH2CO,ketene    1.264-13
 O(CH)2O         6.510-16
 C2O             3.529-11
 C3O2            4.739-15
 *H              1.2488-1
 HCO             2.9059-6
 HCCO            5.496-13
 HO2             2.3723-5
 *H2             6.6774-2
 HCHO,formaldehy 1.2433-8
 HCOOH           1.5308-8
 H2O             8.9850-2
 H2O2            5.5548-7
 *O              8.0478-2
 *OH             7.9002-2
 *O2             4.1826-2
 O3              2.7117-8

  * THERMODYNAMIC PROPERTIES FITTED TO 20000.K









         THERMODYNAMIC EQUILIBRIUM COMBUSTION PROPERTIES AT ASSIGNED

                                   PRESSURES

 CASE =                

             REACTANT                       MOLES         ENERGY      TEMP
                                                         KJ/KG-MOL      K
 FUEL        C2H2,acetylene               1.0000000    228281.530    300.000
 OXIDANT     O2                           2.5000000        54.358    300.000

 O/F=    2.04827  %FUEL= 32.805512  R,EQ.RATIO= 1.500000  PHI,EQ.RATIO= 1.500000

 THERMODYNAMIC PROPERTIES

 P, BAR            1.0000
 T, K             3422.52
 RHO, KG/CU M    7.3883-2
 H, KJ/KG         2877.36
 U, KJ/KG         1523.87
 G, KJ/KG        -41369.0
 S, KJ/(KG)(K)    12.9280

 M, (1/n)          21.025
 (dLV/dLP)t      -1.09158
 (dLV/dLT)p        2.5992
 Cp, KJ/(KG)(K)   12.9030
 GAMMAs            1.1306
 SON VEL,M/SEC     1237.0

 MOLE FRACTIONS

 *C              3.4021-9
 *CH             2.285-10
 CH2             6.390-11
 CH3             1.566-11
 CH2OH           1.335-12
 CH3O            4.054-13
 CH4             6.494-13
 CH3OH           1.385-14
 *CO             4.6570-1
 *CO2            6.4095-2
 COOH            6.6963-7
 *C2             6.824-15
 C2H             2.905-14
 C2H2,acetylene  5.469-14
 C2H2,vinylidene 4.023-16
 CH2CO,ketene    1.880-13
 O(CH)2O         8.161-16
 C2O             4.785-11
 C3O2            6.580-15
 *H              1.3600-1
 HCO             3.2955-6
 HCCO            7.846-13
 HO2             1.8506-5
 *H2             7.5726-2
 HCHO,formaldehy 1.4801-8
 HCOOH           1.5216-8
 H2O             8.5061-2
 H2O2            4.5484-7
 *O              7.0585-2
 *OH             7.2201-2
 *O2             3.0609-2
 O3              1.7283-8

  * THERMODYNAMIC PROPERTIES FITTED TO 20000.K









         THERMODYNAMIC EQUILIBRIUM COMBUSTION PROPERTIES AT ASSIGNED

                                   PRESSURES

 CASE =                

             REACTANT                       MOLES         ENERGY      TEMP
                                                         KJ/KG-MOL      K
 FUEL        C2H2,acetylene               1.0000000    228281.530    300.000
 OXIDANT     O2                           2.5000000        54.358    300.000

 O/F=    1.92025  %FUEL= 34.243626  R,EQ.RATIO= 1.600000  PHI,EQ.RATIO= 1.600000

 THERMODYNAMIC PROPERTIES

 P, BAR            1.0000
 T, K             3428.74
 RHO, KG/CU M    7.2175-2
 H, KJ/KG         3003.42
 U, KJ/KG         1617.91
 G, KJ/KG        -41920.4
 S, KJ/(KG)(K)    13.1021

 M, (1/n)          20.576
 (dLV/dLP)t      -1.08734
 (dLV/dLT)p        2.5156
 Cp, KJ/(KG)(K)   12.5034
 GAMMAs            1.1327
 SON VEL,M/SEC     1252.8

 MOLE FRACTIONS

 *C              4.4303-9
 *CH             3.132-10
 CH2             9.171-11
 CH3             2.348-11
 CH2OH           1.674-12
 CH3O            5.099-13
 CH4             1.020-12
 CH3OH           1.822-14
 *CO             4.8570-1
 *CO2            5.5522-2
 COOH            6.2258-7
 *C2             1.113-14
 C2H             4.946-14
 C2H2,acetylene  9.672-14
 C2H2,vinylidene 7.192-16
 CH2CO,ketene    2.759-13
 O(CH)2O         1.002-15
 C2O             6.375-11
 C3O2            8.997-15
 *H              1.4646-1
 HCO             3.6831-6
 HCCO            1.101-12
 HO2             1.4033-5
 *H2             8.5276-2
 HCHO,formaldehy 1.7389-8
 HCOOH           1.4867-8
 H2O             7.9654-2
 H2O2            3.6254-7
 *O              6.0633-2
 *OH             6.4883-2
 *O2             2.1858-2
 O3              1.0553-8

  * THERMODYNAMIC PROPERTIES FITTED TO 20000.K









         THERMODYNAMIC EQUILIBRIUM COMBUSTION PROPERTIES AT ASSIGNED

                                   PRESSURES

 CASE =                

             REACTANT                       MOLES         ENERGY      TEMP
                                                         KJ/KG-MOL      K
 FUEL        C2H2,acetylene               1.0000000    228281.530    300.000
 OXIDANT     O2                           2.5000000        54.358    300.000

 O/F=    1.80730  %FUEL= 35.621473  R,EQ.RATIO= 1.700000  PHI,EQ.RATIO= 1.700000

 THERMODYNAMIC PROPERTIES

 P, BAR            1.0000
 T, K             3431.77
 RHO, KG/CU M    7.0648-2
 H, KJ/KG         3124.20
 U, KJ/KG         1708.73
 G, KJ/KG        -42399.0
 S, KJ/(KG)(K)    13.2652

 M, (1/n)          20.158
 (dLV/dLP)t      -1.08239
 (dLV/dLT)p        2.4216
 Cp, KJ/(KG)(K)   12.0099
 GAMMAs            1.1351
 SON VEL,M/SEC     1267.5

 MOLE FRACTIONS

 *C              5.6696-9
 *CH             4.226-10
 CH2             1.300-10
 CH3             3.496-11
 CH2OH           2.064-12
 CH3O            6.297-13
 CH4             1.598-12
 CH3OH           2.364-14
 *CO             5.0401-1
 *CO2            4.7551-2
 COOH            5.6733-7
 *C2             1.788-14
 C2H             8.344-14
 C2H2,acetylene  1.709-13
 C2H2,vinylidene 1.277-15
 CH2CO,ketene    4.022-13
 O(CH)2O         1.210-15
 C2O             8.387-11
 C3O2            1.219-14
 *H              1.5609-1
 HCO             4.0635-6
 HCCO            1.527-12
 HO2             1.0288-5
 *H2             9.5484-2
 HCHO,formaldehy 2.0208-8
 HCOOH           1.4268-8
 H2O             7.3651-2
 H2O2            2.7996-7
 *O              5.0863-2
 *OH             5.7196-2
 *O2             1.5139-2
 O3              6.1176-9

  * THERMODYNAMIC PROPERTIES FITTED TO 20000.K









         THERMODYNAMIC EQUILIBRIUM COMBUSTION PROPERTIES AT ASSIGNED

                                   PRESSURES

 CASE =                

             REACTANT                       MOLES         ENERGY      TEMP
                                                         KJ/KG-MOL      K
 FUEL        C2H2,acetylene               1.0000000    228281.530    300.000
 OXIDANT     O2                           2.5000000        54.358    300.000

 O/F=    1.70689  %FUEL= 36.942762  R,EQ.RATIO= 1.800000  PHI,EQ.RATIO= 1.800000

 THERMODYNAMIC PROPERTIES

 P, BAR            1.0000
 T, K             3431.53
 RHO, KG/CU M    6.9285-2
 H, KJ/KG         3240.02
 U, KJ/KG         1796.71
 G, KJ/KG        -42803.9
 S, KJ/(KG)(K)    13.4179

 M, (1/n)          19.768
 (dLV/dLP)t      -1.07685
 (dLV/dLT)p        2.3196
 Cp, KJ/(KG)(K)   11.4358
 GAMMAs            1.1377
 SON VEL,M/SEC     1281.4

 MOLE FRACTIONS

 *C              7.1628-9
 *CH             5.638-10
 CH2             1.833-10
 CH3             5.205-11
 CH2OH           2.510-12
 CH3O            7.655-13
 CH4             2.513-12
 CH3OH           3.036-14
 *CO             5.2081-1
 *CO2            4.0134-2
 COOH            5.0531-7
 *C2             2.859-14
 C2H             1.409-13
 C2H2,acetylene  3.049-13
 C2H2,vinylidene 2.278-15
 CH2CO,ketene    5.862-13
 O(CH)2O         1.440-15
 CH3CO,acetyl    1.042-16
 C2O             1.096-10
 C3O2            1.646-14
 *H              1.6470-1
 HCO             4.4315-6
 HCCO            2.107-12
 HO2             7.2363-6
 *H2             1.0643-1
 HCHO,formaldehy 2.3275-8
 HCOOH           1.3422-8
 H2O             6.7049-2
 H2O2            2.0798-7
 *O              4.1491-2
 *OH             4.9286-2
 *O2             1.0087-2
 O3              3.3254-9

  * THERMODYNAMIC PROPERTIES FITTED TO 20000.K









         THERMODYNAMIC EQUILIBRIUM COMBUSTION PROPERTIES AT ASSIGNED

                                   PRESSURES

 CASE =                

             REACTANT                       MOLES         ENERGY      TEMP
                                                         KJ/KG-MOL      K
 FUEL        C2H2,acetylene               1.0000000    228281.530    300.000
 OXIDANT     O2                           2.5000000        54.358    300.000

 O/F=    1.61705  %FUEL= 38.210906  R,EQ.RATIO= 1.900000  PHI,EQ.RATIO= 1.900000

 THERMODYNAMIC PROPERTIES

 P, BAR            1.0000
 T, K             3427.90
 RHO, KG/CU M    6.8075-2
 H, KJ/KG         3351.19
 U, KJ/KG         1882.21
 G, KJ/KG        -43133.3
 S, KJ/(KG)(K)    13.5606

 M, (1/n)          19.402
 (dLV/dLP)t      -1.07093
 (dLV/dLT)p        2.2123
 Cp, KJ/(KG)(K)   10.7984
 GAMMAs            1.1406
 SON VEL,M/SEC     1294.4

 MOLE FRACTIONS

 *C              8.9819-9
 *CH             7.485-10
 CH2             2.585-10
 CH3             7.807-11
 CH2OH           3.014-12
 CH3O            9.177-13
 CH4             4.002-12
 CH3OH           3.869-14
 *CO             5.3625-1
 *CO2            3.3220-2
 COOH            4.3790-7
 *C2             4.598-14
 C2H             2.411-13
 C2H2,acetylene  5.569-13
 C2H2,vinylidene 4.134-15
 CH2CO,ketene    8.610-13
 O(CH)2O         1.693-15
 CH3CO,acetyl    1.610-16
 C2O             1.431-10
 C3O2            2.234-14
 *H              1.7210-1
 HCO             4.7815-6
 HCCO            2.912-12
 HO2             4.8289-6
 *H2             1.1821-1
 HCHO,formaldehy 2.6612-8
 HCOOH           1.2328-8
 H2O             5.9827-2
 H2O2            1.4708-7
 *O              3.2709-2
 *OH             4.1289-2
 *O2             6.3891-3
 O3              1.6650-9

  * THERMODYNAMIC PROPERTIES FITTED TO 20000.K









         THERMODYNAMIC EQUILIBRIUM COMBUSTION PROPERTIES AT ASSIGNED

                                   PRESSURES

 CASE =                

             REACTANT                       MOLES         ENERGY      TEMP
                                                         KJ/KG-MOL      K
 FUEL        C2H2,acetylene               1.0000000    228281.530    300.000
 OXIDANT     O2                           2.5000000        54.358    300.000

 O/F=    1.53620  %FUEL= 39.429049  R,EQ.RATIO= 2.000000  PHI,EQ.RATIO= 2.000000

 THERMODYNAMIC PROPERTIES

 P, BAR            1.0000
 T, K             3420.71
 RHO, KG/CU M    6.7009-2
 H, KJ/KG         3457.97
 U, KJ/KG         1965.62
 G, KJ/KG        -43384.3
 S, KJ/(KG)(K)    13.6937

 M, (1/n)          19.058
 (dLV/dLP)t      -1.06481
 (dLV/dLT)p        2.1029
 Cp, KJ/(KG)(K)   10.1188
 GAMMAs            1.1440
 SON VEL,M/SEC     1306.6

 MOLE FRACTIONS

 *C              1.1264-8
 *CH             9.970-10
 CH2             3.682-10
 CH3             1.192-10
 CH2OH           3.583-12
 CH3O            1.087-12
 CH4             6.524-12
 CH3OH           4.904-14
 *CO             5.5045-1
 *CO2            2.6760-2
 COOH            3.6643-7
 *C2             7.566-14
 C2H             4.256-13
 C2H2,acetylene  1.060-12
 C2H2,vinylidene 7.775-15
 CH2CO,ketene    1.288-12
 O(CH)2O         1.970-15
 C2H3,vinyl      1.298-16
 CH3CO,acetyl    2.525-16
 C2O             1.883-10
 C3O2            3.075-14
 *H              1.7808-1
 HCO             5.1077-6
 HCCO            4.070-12
 HO2             3.0053-6
 *H2             1.3095-1
 HCHO,formaldehy 3.0250-8
 HCOOH           1.0980-8
 H2O             5.1938-2
 H2O2            9.7402-8
 *O              2.4689-2
 *OH             3.3348-2
 *O2             3.7807-3
 O3              7.477-10

  * THERMODYNAMIC PROPERTIES FITTED TO 20000.K



