
 *******************************************************************************

         NASA-GLENN CHEMICAL EQUILIBRIUM PROGRAM CEA2, MAY 21, 2004
                   BY  BONNIE MCBRIDE AND SANFORD GORDON
      REFS: NASA RP-1311, PART I, 1994 AND NASA RP-1311, PART II, 1996

 *******************************************************************************



 problem    phi,eq.ratio=0.5,0.6,0.7,0.8,0.9,1,1.1,1.2,1.3,1.4,1.5,1.6,1.7,1.8,1.
 9,2,
       hp   p,bar=1,  t,k=3800
 react
   fuel=C2H4 moles=1  t,k=300
   oxid=O2 moles=3  t,k=300
 output  short   trace=1e-16
 end




         THERMODYNAMIC EQUILIBRIUM COMBUSTION PROPERTIES AT ASSIGNED

                                   PRESSURES

 CASE =                

             REACTANT                       MOLES         ENERGY      TEMP
                                                         KJ/KG-MOL      K
 FUEL        C2H4                         1.0000000     52579.505    300.000
 OXIDANT     O2                           3.0000000        54.358    300.000

 O/F=    6.84389  %FUEL= 12.748773  R,EQ.RATIO= 0.500000  PHI,EQ.RATIO= 0.500000

 THERMODYNAMIC PROPERTIES

 P, BAR            1.0000
 T, K             2967.68
 RHO, KG/CU M    1.1316-1
 H, KJ/KG          240.43
 U, KJ/KG         -643.27
 G, KJ/KG        -31247.3
 S, KJ/(KG)(K)    10.6102

 M, (1/n)          27.922
 (dLV/dLP)t      -1.04667
 (dLV/dLT)p        1.9976
 Cp, KJ/(KG)(K)    8.0108
 GAMMAs            1.1132
 SON VEL,M/SEC      991.8

 MOLE FRACTIONS

 *C              1.843-12
 *CH             9.713-14
 CH2             3.488-14
 CH3             1.286-14
 CH2OH           9.499-15
 CH3O            2.199-15
 CH4             6.460-16
 CH3OH           1.054-16
 *CO             8.2013-2
 *CO2            1.7177-1
 COOH            2.7817-7
 C2O             2.342-14
 *H              1.5928-2
 HCO             1.0301-7
 HCCO            2.935-16
 HO2             8.8043-5
 *H2             1.2397-2
 HCHO,formaldehy 4.181-10
 HCOOH           5.8481-9
 H2O             1.9043-1
 H2O2            1.9497-6
 *O              6.2291-2
 *OH             8.5905-2
 *O2             3.7918-1
 O3              2.9164-7

  * THERMODYNAMIC PROPERTIES FITTED TO 20000.K









         THERMODYNAMIC EQUILIBRIUM COMBUSTION PROPERTIES AT ASSIGNED

                                   PRESSURES

 CASE =                

             REACTANT                       MOLES         ENERGY      TEMP
                                                         KJ/KG-MOL      K
 FUEL        C2H4                         1.0000000     52579.505    300.000
 OXIDANT     O2                           3.0000000        54.358    300.000

 O/F=    5.70324  %FUEL= 14.918151  R,EQ.RATIO= 0.600000  PHI,EQ.RATIO= 0.600000

 THERMODYNAMIC PROPERTIES

 P, BAR            1.0000
 T, K             3037.89
 RHO, KG/CU M    1.0600-1
 H, KJ/KG          281.05
 U, KJ/KG         -662.32
 G, KJ/KG        -33222.4
 S, KJ/(KG)(K)    11.0285

 M, (1/n)          26.775
 (dLV/dLP)t      -1.05893
 (dLV/dLT)p        2.2226
 Cp, KJ/(KG)(K)    9.6111
 GAMMAs            1.1120
 SON VEL,M/SEC     1024.2

 MOLE FRACTIONS

 *C              6.480-12
 *CH             3.767-13
 CH2             1.371-13
 CH3             4.977-14
 CH2OH           2.793-14
 CH3O            6.769-15
 CH4             2.550-15
 CH3OH           3.235-16
 *CO             1.1667-1
 *CO2            1.6810-1
 COOH            3.9824-7
 CH2CO,ketene    4.009-16
 C2O             8.806-14
 *H              2.4456-2
 HCO             2.0933-7
 HCCO            1.223-15
 HO2             8.6741-5
 *H2             1.9002-2
 HCHO,formaldehy 9.140-10
 HCOOH           8.9713-9
 H2O             2.0475-1
 H2O2            2.0691-6
 *O              7.0359-2
 *OH             9.7484-2
 *O2             2.9910-1
 O3              2.3962-7

  * THERMODYNAMIC PROPERTIES FITTED TO 20000.K









         THERMODYNAMIC EQUILIBRIUM COMBUSTION PROPERTIES AT ASSIGNED

                                   PRESSURES

 CASE =                

             REACTANT                       MOLES         ENERGY      TEMP
                                                         KJ/KG-MOL      K
 FUEL        C2H4                         1.0000000     52579.505    300.000
 OXIDANT     O2                           3.0000000        54.358    300.000

 O/F=    4.88849  %FUEL= 16.982270  R,EQ.RATIO= 0.700000  PHI,EQ.RATIO= 0.700000

 THERMODYNAMIC PROPERTIES

 P, BAR            1.0000
 T, K             3088.08
 RHO, KG/CU M    1.0023-1
 H, KJ/KG          319.71
 U, KJ/KG         -678.00
 G, KJ/KG        -34930.9
 S, KJ/(KG)(K)    11.4150

 M, (1/n)          25.735
 (dLV/dLP)t      -1.06866
 (dLV/dLT)p        2.3933
 Cp, KJ/(KG)(K)   10.9361
 GAMMAs            1.1118
 SON VEL,M/SEC     1053.2

 MOLE FRACTIONS

 *C              1.621-11
 *CH             1.030-12
 CH2             3.868-13
 CH3             1.421-13
 CH2OH           6.339-14
 CH3O            1.586-14
 CH4             7.546-15
 CH3OH           7.734-16
 *CO             1.5050-1
 *CO2            1.6108-1
 COOH            5.0661-7
 CH2CO,ketene    1.194-15
 C2O             2.336-13
 *H              3.3565-2
 HCO             3.5267-7
 HCCO            3.561-15
 HO2             8.0947-5
 *H2             2.6625-2
 HCHO,formaldehy 1.6555-9
 HCOOH           1.2234-8
 H2O             2.1594-1
 H2O2            2.0771-6
 *O              7.3470-2
 *OH             1.0438-1
 *O2             2.3436-1
 O3              1.8567-7

  * THERMODYNAMIC PROPERTIES FITTED TO 20000.K









         THERMODYNAMIC EQUILIBRIUM COMBUSTION PROPERTIES AT ASSIGNED

                                   PRESSURES

 CASE =                

             REACTANT                       MOLES         ENERGY      TEMP
                                                         KJ/KG-MOL      K
 FUEL        C2H4                         1.0000000     52579.505    300.000
 OXIDANT     O2                           3.0000000        54.358    300.000

 O/F=    4.27743  %FUEL= 18.948608  R,EQ.RATIO= 0.800000  PHI,EQ.RATIO= 0.800000

 THERMODYNAMIC PROPERTIES

 P, BAR            1.0000
 T, K             3124.89
 RHO, KG/CU M    9.5431-2
 H, KJ/KG          356.53
 U, KJ/KG         -691.35
 G, KJ/KG        -36436.2
 S, KJ/(KG)(K)    11.7741

 M, (1/n)          24.795
 (dLV/dLP)t      -1.07602
 (dLV/dLT)p        2.5165
 Cp, KJ/(KG)(K)   12.0069
 GAMMAs            1.1122
 SON VEL,M/SEC     1079.5

 MOLE FRACTIONS

 *C              3.284-11
 *CH             2.270-12
 CH2             8.889-13
 CH3             3.358-13
 CH2OH           1.223-13
 CH3O            3.131-14
 CH4             1.869-14
 CH3OH           1.581-15
 *CO             1.8278-1
 *CO2            1.5217-1
 COOH            5.9759-7
 C2H2,acetylene  1.340-16
 CH2CO,ketene    2.891-15
 C2O             5.000-13
 *H              4.2920-2
 HCO             5.2868-7
 HCCO            8.308-15
 HO2             7.2655-5
 *H2             3.5253-2
 HCHO,formaldehy 2.6664-9
 HCOOH           1.5475-8
 H2O             2.2446-1
 H2O2            2.0039-6
 *O              7.2840-2
 *OH             1.0748-1
 *O2             1.8201-1
 O3              1.3760-7

  * THERMODYNAMIC PROPERTIES FITTED TO 20000.K









         THERMODYNAMIC EQUILIBRIUM COMBUSTION PROPERTIES AT ASSIGNED

                                   PRESSURES

 CASE =                

             REACTANT                       MOLES         ENERGY      TEMP
                                                         KJ/KG-MOL      K
 FUEL        C2H4                         1.0000000     52579.505    300.000
 OXIDANT     O2                           3.0000000        54.358    300.000

 O/F=    3.80216  %FUEL= 20.823953  R,EQ.RATIO= 0.900000  PHI,EQ.RATIO= 0.900000

 THERMODYNAMIC PROPERTIES

 P, BAR            1.0000
 T, K             3151.82
 RHO, KG/CU M    9.1365-2
 H, KJ/KG          391.64
 U, KJ/KG         -702.86
 G, KJ/KG        -37773.3
 S, KJ/(KG)(K)    12.1089

 M, (1/n)          23.943
 (dLV/dLP)t      -1.08116
 (dLV/dLT)p        2.5973
 Cp, KJ/(KG)(K)   12.8359
 GAMMAs            1.1128
 SON VEL,M/SEC     1103.6

 MOLE FRACTIONS

 *C              5.764-11
 *CH             4.319-12
 CH2             1.779-12
 CH3             7.001-13
 CH2OH           2.115-13
 CH3O            5.503-14
 CH4             4.111-14
 CH3OH           2.907-15
 *CO             2.1323-1
 *CO2            1.4223-1
 COOH            6.6850-7
 C2H2,acetylene  3.538-16
 CH2CO,ketene    6.093-15
 C2O             9.263-13
 C3O2            1.250-16
 *H              5.2254-2
 HCO             7.3204-7
 HCCO            1.671-14
 HO2             6.3161-5
 *H2             4.4914-2
 HCHO,formaldehy 3.9676-9
 HCOOH           1.8576-8
 H2O             2.3065-1
 H2O2            1.8725-6
 *O              6.9448-2
 *OH             1.0747-1
 *O2             1.3974-1
 O3              9.8037-8

  * THERMODYNAMIC PROPERTIES FITTED TO 20000.K









         THERMODYNAMIC EQUILIBRIUM COMBUSTION PROPERTIES AT ASSIGNED

                                   PRESSURES

 CASE =                

             REACTANT                       MOLES         ENERGY      TEMP
                                                         KJ/KG-MOL      K
 FUEL        C2H4                         1.0000000     52579.505    300.000
 OXIDANT     O2                           3.0000000        54.358    300.000

 O/F=    3.42195  %FUEL= 22.614478  R,EQ.RATIO= 1.000000  PHI,EQ.RATIO= 1.000000

 THERMODYNAMIC PROPERTIES

 P, BAR            1.0000
 T, K             3170.87
 RHO, KG/CU M    8.7877-2
 H, KJ/KG          425.17
 U, KJ/KG         -712.78
 G, KJ/KG        -38962.5
 S, KJ/(KG)(K)    12.4217

 M, (1/n)          23.168
 (dLV/dLP)t      -1.08415
 (dLV/dLT)p        2.6389
 Cp, KJ/(KG)(K)   13.4252
 GAMMAs            1.1136
 SON VEL,M/SEC     1125.7

 MOLE FRACTIONS

 *C              9.108-11
 *CH             7.387-12
 CH2             3.225-12
 CH3             1.336-12
 CH2OH           3.379-13
 CH3O            8.893-14
 CH4             8.335-14
 CH3OH           4.960-15
 *CO             2.4174-1
 *CO2            1.3179-1
 COOH            7.1836-7
 C2H             2.012-16
 C2H2,acetylene  8.304-16
 CH2CO,ketene    1.166-14
 O(CH)2O         1.440-16
 C2O             1.548-12
 C3O2            2.234-16
 *H              6.1327-2
 HCO             9.5693-7
 HCCO            3.026-14
 HO2             5.3326-5
 *H2             5.5669-2
 HCHO,formaldehy 5.5799-9
 HCOOH           2.1454-8
 H2O             2.3472-1
 H2O2            1.7011-6
 *O              6.4075-2
 *OH             1.0488-1
 *O2             1.0574-1
 O3              6.7177-8

  * THERMODYNAMIC PROPERTIES FITTED TO 20000.K









         THERMODYNAMIC EQUILIBRIUM COMBUSTION PROPERTIES AT ASSIGNED

                                   PRESSURES

 CASE =                

             REACTANT                       MOLES         ENERGY      TEMP
                                                         KJ/KG-MOL      K
 FUEL        C2H4                         1.0000000     52579.505    300.000
 OXIDANT     O2                           3.0000000        54.358    300.000

 O/F=    3.11086  %FUEL= 24.325810  R,EQ.RATIO= 1.100000  PHI,EQ.RATIO= 1.100000

 THERMODYNAMIC PROPERTIES

 P, BAR            1.0000
 T, K             3183.16
 RHO, KG/CU M    8.4861-2
 H, KJ/KG          457.22
 U, KJ/KG         -721.18
 G, KJ/KG        -40015.8
 S, KJ/(KG)(K)    12.7147

 M, (1/n)          22.460
 (dLV/dLP)t      -1.08504
 (dLV/dLT)p        2.6429
 Cp, KJ/(KG)(K)   13.7672
 GAMMAs            1.1145
 SON VEL,M/SEC     1146.0

 MOLE FRACTIONS

 *C              1.326-10
 *CH             1.164-11
 CH2             5.428-12
 CH3             2.392-12
 CH2OH           5.088-13
 CH3O            1.349-13
 CH4             1.596-13
 CH3OH           8.017-15
 *CO             2.6832-1
 *CO2            1.2118-1
 COOH            7.4722-7
 C2H             4.140-16
 C2H2,acetylene  1.792-15
 CH2CO,ketene    2.082-14
 O(CH)2O         2.167-16
 C2O             2.393-12
 C3O2            3.694-16
 *H              6.9903-2
 HCO             1.1971-6
 HCCO            5.067-14
 HO2             4.3738-5
 *H2             6.7611-2
 HCHO,formaldehy 7.5263-9
 HCOOH           2.4047-8
 H2O             2.3686-1
 H2O2            1.5045-6
 *O              5.7356-2
 *OH             1.0013-1
 *O2             7.8584-2
 O3              4.4164-8

  * THERMODYNAMIC PROPERTIES FITTED TO 20000.K









         THERMODYNAMIC EQUILIBRIUM COMBUSTION PROPERTIES AT ASSIGNED

                                   PRESSURES

 CASE =                

             REACTANT                       MOLES         ENERGY      TEMP
                                                         KJ/KG-MOL      K
 FUEL        C2H4                         1.0000000     52579.505    300.000
 OXIDANT     O2                           3.0000000        54.358    300.000

 O/F=    2.85162  %FUEL= 25.963090  R,EQ.RATIO= 1.200000  PHI,EQ.RATIO= 1.200000

 THERMODYNAMIC PROPERTIES

 P, BAR            1.0000
 T, K             3189.29
 RHO, KG/CU M    8.2244-2
 H, KJ/KG          487.88
 U, KJ/KG         -728.01
 G, KJ/KG        -40939.3
 S, KJ/(KG)(K)    12.9895

 M, (1/n)          21.809
 (dLV/dLP)t      -1.08382
 (dLV/dLT)p        2.6097
 Cp, KJ/(KG)(K)   13.8481
 GAMMAs            1.1157
 SON VEL,M/SEC     1164.7

 MOLE FRACTIONS

 *C              1.806-10
 *CH             1.718-11
 CH2             8.624-12
 CH3             4.083-12
 CH2OH           7.317-13
 CH3O            1.947-13
 CH4             2.935-13
 CH3OH           1.244-14
 *CO             2.9304-1
 *CO2            1.1064-1
 COOH            7.5575-7
 C2H             7.880-16
 C2H2,acetylene  3.640-15
 CH2CO,ketene    3.532-14
 O(CH)2O         3.100-16
 C2O             3.480-12
 C3O2            5.761-16
 *H              7.7734-2
 HCO             1.4457-6
 HCCO            7.990-14
 HO2             3.4797-5
 *H2             8.0859-2
 HCHO,formaldehy 9.8331-9
 HCOOH           2.6303-8
 H2O             2.3714-1
 H2O2            1.2949-6
 *O              4.9823-2
 *OH             9.3595-2
 *O2             5.7128-2
 O3              2.7727-8

  * THERMODYNAMIC PROPERTIES FITTED TO 20000.K









         THERMODYNAMIC EQUILIBRIUM COMBUSTION PROPERTIES AT ASSIGNED

                                   PRESSURES

 CASE =                

             REACTANT                       MOLES         ENERGY      TEMP
                                                         KJ/KG-MOL      K
 FUEL        C2H4                         1.0000000     52579.505    300.000
 OXIDANT     O2                           3.0000000        54.358    300.000

 O/F=    2.63227  %FUEL= 27.531022  R,EQ.RATIO= 1.300000  PHI,EQ.RATIO= 1.300000

 THERMODYNAMIC PROPERTIES

 P, BAR            1.0000
 T, K             3189.49
 RHO, KG/CU M    7.9974-2
 H, KJ/KG          517.24
 U, KJ/KG         -733.16
 G, KJ/KG        -41734.9
 S, KJ/(KG)(K)    13.2473

 M, (1/n)          21.208
 (dLV/dLP)t      -1.08050
 (dLV/dLT)p        2.5403
 Cp, KJ/(KG)(K)   13.6543
 GAMMAs            1.1170
 SON VEL,M/SEC     1181.8

 MOLE FRACTIONS

 *C              2.319-10
 *CH             2.398-11
 CH2             1.308-11
 CH3             6.728-12
 CH2OH           1.014-12
 CH3O            2.698-13
 CH4             5.256-13
 CH3OH           1.874-14
 *CO             3.1598-1
 *CO2            1.0029-1
 COOH            7.4507-7
 *C2             1.525-16
 C2H             1.410-15
 C2H2,acetylene  7.076-15
 CH2CO,ketene    5.773-14
 O(CH)2O         4.261-16
 C2O             4.816-12
 C3O2            8.592-16
 *H              8.4553-2
 HCO             1.6953-6
 HCCO            1.202-13
 HO2             2.6770-5
 *H2             9.5562-2
 HCHO,formaldehy 1.2531-8
 HCOOH           2.8180-8
 H2O             2.3562-1
 H2O2            1.0826-6
 *O              4.1938-2
 *OH             8.5600-2
 *O2             4.0427-2
 O3              1.6512-8

  * THERMODYNAMIC PROPERTIES FITTED TO 20000.K









         THERMODYNAMIC EQUILIBRIUM COMBUSTION PROPERTIES AT ASSIGNED

                                   PRESSURES

 CASE =                

             REACTANT                       MOLES         ENERGY      TEMP
                                                         KJ/KG-MOL      K
 FUEL        C2H4                         1.0000000     52579.505    300.000
 OXIDANT     O2                           3.0000000        54.358    300.000

 O/F=    2.44425  %FUEL= 29.033921  R,EQ.RATIO= 1.400000  PHI,EQ.RATIO= 1.400000

 THERMODYNAMIC PROPERTIES

 P, BAR            1.0000
 T, K             3183.73
 RHO, KG/CU M    7.8013-2
 H, KJ/KG          545.38
 U, KJ/KG         -736.45
 G, KJ/KG        -42401.2
 S, KJ/(KG)(K)    13.4894

 M, (1/n)          20.651
 (dLV/dLP)t      -1.07524
 (dLV/dLT)p        2.4367
 Cp, KJ/(KG)(K)   13.1828
 GAMMAs            1.1187
 SON VEL,M/SEC     1197.5

 MOLE FRACTIONS

 *C              2.824-10
 *CH             3.187-11
 CH2             1.908-11
 CH3             1.080-11
 CH2OH           1.362-12
 CH3O            3.613-13
 CH4             9.257-13
 CH3OH           2.758-14
 *CO             3.3722-1
 *CO2            9.0237-2
 COOH            7.1665-7
 *C2             2.358-16
 C2H             2.401-15
 C2H2,acetylene  1.334-14
 CH2CO,ketene    9.181-14
 O(CH)2O         5.667-16
 C2O             6.390-12
 C3O2            1.238-15
 *H              9.0068-2
 HCO             1.9374-6
 HCCO            1.739-13
 HO2             1.9827-5
 *H2             1.1189-1
 HCHO,formaldehy 1.5654-8
 HCOOH           2.9638-8
 H2O             2.3228-1
 H2O2            8.7651-7
 *O              3.4106-2
 *OH             7.6483-2
 *O2             2.7689-2
 O3              9.2481-9

  * THERMODYNAMIC PROPERTIES FITTED TO 20000.K









         THERMODYNAMIC EQUILIBRIUM COMBUSTION PROPERTIES AT ASSIGNED

                                   PRESSURES

 CASE =                

             REACTANT                       MOLES         ENERGY      TEMP
                                                         KJ/KG-MOL      K
 FUEL        C2H4                         1.0000000     52579.505    300.000
 OXIDANT     O2                           3.0000000        54.358    300.000

 O/F=    2.28130  %FUEL= 30.475751  R,EQ.RATIO= 1.500000  PHI,EQ.RATIO= 1.500000

 THERMODYNAMIC PROPERTIES

 P, BAR            1.0000
 T, K             3171.79
 RHO, KG/CU M    7.6336-2
 H, KJ/KG          572.38
 U, KJ/KG         -737.61
 G, KJ/KG        -42933.8
 S, KJ/(KG)(K)    13.7166

 M, (1/n)          20.131
 (dLV/dLP)t      -1.06831
 (dLV/dLT)p        2.3041
 Cp, KJ/(KG)(K)   12.4526
 GAMMAs            1.1208
 SON VEL,M/SEC     1211.7

 MOLE FRACTIONS

 *C              3.268-10
 *CH             4.045-11
 CH2             2.692-11
 CH3             1.700-11
 CH2OH           1.783-12
 CH3O            4.694-13
 CH4             1.618-12
 CH3OH           3.992-14
 *CO             3.5685-1
 *CO2            8.0548-2
 COOH            6.7236-7
 *C2             3.443-16
 C2H             3.921-15
 C2H2,acetylene  2.464-14
 C2H2,vinylidene 1.129-16
 CH2CO,ketene    1.432-13
 O(CH)2O         7.333-16
 C2O             8.169-12
 C3O2            1.736-15
 *H              9.3969-2
 HCO             2.1626-6
 HCCO            2.438-13
 HO2             1.4058-5
 *H2             1.3004-1
 HCHO,formaldehy 1.9241-8
 HCOOH           3.0639-8
 H2O             2.2707-1
 H2O2            6.8426-7
 *O              2.6685-2
 *OH             6.6595-2
 *O2             1.8236-2
 O3              4.8206-9

  * THERMODYNAMIC PROPERTIES FITTED TO 20000.K









         THERMODYNAMIC EQUILIBRIUM COMBUSTION PROPERTIES AT ASSIGNED

                                   PRESSURES

 CASE =                

             REACTANT                       MOLES         ENERGY      TEMP
                                                         KJ/KG-MOL      K
 FUEL        C2H4                         1.0000000     52579.505    300.000
 OXIDANT     O2                           3.0000000        54.358    300.000

 O/F=    2.13872  %FUEL= 31.860159  R,EQ.RATIO= 1.600000  PHI,EQ.RATIO= 1.600000

 THERMODYNAMIC PROPERTIES

 P, BAR            1.0000
 T, K             3153.32
 RHO, KG/CU M    7.4926-2
 H, KJ/KG          598.31
 U, KJ/KG         -736.34
 G, KJ/KG        -43326.9
 S, KJ/(KG)(K)    13.9298

 M, (1/n)          19.644
 (dLV/dLP)t      -1.06024
 (dLV/dLT)p        2.1514
 Cp, KJ/(KG)(K)   11.5143
 GAMMAs            1.1235
 SON VEL,M/SEC     1224.5

 MOLE FRACTIONS

 *C              3.593-10
 *CH             4.912-11
 CH2             3.684-11
 CH3             2.640-11
 CH2OH           2.277-12
 CH3O            5.931-13
 CH4             2.824-12
 CH3OH           5.704-14
 *CO             3.7492-1
 *CO2            7.1280-2
 COOH            6.1460-7
 *C2             4.768-16
 C2H             6.178-15
 C2H2,acetylene  4.496-14
 C2H2,vinylidene 1.983-16
 CH2CO,ketene    2.207-13
 O(CH)2O         9.265-16
 C2O             1.010-11
 C3O2            2.385-15
 *H              9.5949-2
 HCO             2.3602-6
 HCCO            3.323-13
 HO2             9.4772-6
 *H2             1.5017-1
 HCHO,formaldehy 2.3327-8
 HCOOH           3.1141-8
 H2O             2.1989-1
 H2O2            5.1238-7
 *O              1.9985-2
 *OH             5.6325-2
 *O2             1.1465-2
 O3              2.3113-9

  * THERMODYNAMIC PROPERTIES FITTED TO 20000.K









         THERMODYNAMIC EQUILIBRIUM COMBUSTION PROPERTIES AT ASSIGNED

                                   PRESSURES

 CASE =                

             REACTANT                       MOLES         ENERGY      TEMP
                                                         KJ/KG-MOL      K
 FUEL        C2H4                         1.0000000     52579.505    300.000
 OXIDANT     O2                           3.0000000        54.358    300.000

 O/F=    2.01291  %FUEL= 33.190510  R,EQ.RATIO= 1.700000  PHI,EQ.RATIO= 1.700000

 THERMODYNAMIC PROPERTIES

 P, BAR            1.0000
 T, K             3127.97
 RHO, KG/CU M    7.3772-2
 H, KJ/KG          623.22
 U, KJ/KG         -732.32
 G, KJ/KG        -43574.1
 S, KJ/(KG)(K)    14.1297

 M, (1/n)          19.186
 (dLV/dLP)t      -1.05170
 (dLV/dLT)p        1.9905
 Cp, KJ/(KG)(K)   10.4492
 GAMMAs            1.1269
 SON VEL,M/SEC     1235.9

 MOLE FRACTIONS

 *C              3.749-10
 *CH             5.704-11
 CH2             4.899-11
 CH3             4.056-11
 CH2OH           2.844-12
 CH3O            7.292-13
 CH4             4.952-12
 CH3OH           8.071-14
 *CO             3.9150-1
 *CO2            6.2493-2
 COOH            5.4642-7
 *C2             6.271-16
 C2H             9.428-15
 C2H2,acetylene  8.158-14
 C2H2,vinylidene 3.413-16
 CH2CO,ketene    3.372-13
 O(CH)2O         1.146-15
 C2O             1.208-11
 C3O2            3.223-15
 *H              9.5751-2
 HCO             2.5188-6
 HCCO            4.420-13
 HO2             6.0324-6
 *H2             1.7241-1
 HCHO,formaldehy 2.7935-8
 HCOOH           3.1110-8
 H2O             2.1065-1
 H2O2            3.6588-7
 *O              1.4249-2
 *OH             4.6106-2
 *O2             6.8308-3
 O3              1.0071-9

  * THERMODYNAMIC PROPERTIES FITTED TO 20000.K









         THERMODYNAMIC EQUILIBRIUM COMBUSTION PROPERTIES AT ASSIGNED

                                   PRESSURES

 CASE =                

             REACTANT                       MOLES         ENERGY      TEMP
                                                         KJ/KG-MOL      K
 FUEL        C2H4                         1.0000000     52579.505    300.000
 OXIDANT     O2                           3.0000000        54.358    300.000

 O/F=    1.90108  %FUEL= 34.469908  R,EQ.RATIO= 1.800000  PHI,EQ.RATIO= 1.800000

 THERMODYNAMIC PROPERTIES

 P, BAR            1.0000
 T, K             3095.53
 RHO, KG/CU M    7.2864-2
 H, KJ/KG          647.18
 U, KJ/KG         -725.24
 G, KJ/KG        -43670.9
 S, KJ/(KG)(K)    14.3168

 M, (1/n)          18.754
 (dLV/dLP)t      -1.04339
 (dLV/dLT)p        1.8339
 Cp, KJ/(KG)(K)    9.3548
 GAMMAs            1.1312
 SON VEL,M/SEC     1246.0

 MOLE FRACTIONS

 *C              3.705-10
 *CH             6.329-11
 CH2             6.330-11
 CH3             6.177-11
 CH2OH           3.470-12
 CH3O            8.721-13
 CH4             8.750-12
 CH3OH           1.132-13
 *CO             4.0661-1
 *CO2            5.4252-2
 COOH            4.7163-7
 *C2             7.839-16
 C2H             1.397-14
 C2H2,acetylene  1.479-13
 C2H2,vinylidene 5.773-16
 CH2CO,ketene    5.130-13
 O(CH)2O         1.388-15
 CH3CO,acetyl    1.038-16
 C2O             1.402-11
 C3O2            4.303-15
 *H              9.3231-2
 HCO             2.6276-6
 HCCO            5.746-13
 HO2             3.6015-6
 *H2             1.9675-1
 HCHO,formaldehy 3.3063-8
 HCOOH           3.0519-8
 H2O             1.9930-1
 H2O2            2.4775-7
 *O              9.6238-3
 *OH             3.6397-2
 *O2             3.8324-3
 O3              3.946-10

  * THERMODYNAMIC PROPERTIES FITTED TO 20000.K









         THERMODYNAMIC EQUILIBRIUM COMBUSTION PROPERTIES AT ASSIGNED

                                   PRESSURES

 CASE =                

             REACTANT                       MOLES         ENERGY      TEMP
                                                         KJ/KG-MOL      K
 FUEL        C2H4                         1.0000000     52579.505    300.000
 OXIDANT     O2                           3.0000000        54.358    300.000

 O/F=    1.80102  %FUEL= 35.701226  R,EQ.RATIO= 1.900000  PHI,EQ.RATIO= 1.900000

 THERMODYNAMIC PROPERTIES

 P, BAR            1.0000
 T, K             3056.06
 RHO, KG/CU M    7.2194-2
 H, KJ/KG          670.23
 U, KJ/KG         -714.93
 G, KJ/KG        -43617.1
 S, KJ/(KG)(K)    14.4916

 M, (1/n)          18.344
 (dLV/dLP)t      -1.03584
 (dLV/dLT)p        1.6917
 Cp, KJ/(KG)(K)    8.3193
 GAMMAs            1.1365
 SON VEL,M/SEC     1254.7

 MOLE FRACTIONS

 *C              3.465-10
 *CH             6.703-11
 CH2             7.946-11
 CH3             9.330-11
 CH2OH           4.133-12
 CH3O            1.013-12
 CH4             1.560-11
 CH3OH           1.571-13
 *CO             4.2028-1
 *CO2            4.6623-2
 COOH            3.9459-7
 *C2             9.316-16
 C2H             2.011-14
 C2H2,acetylene  2.685-13
 C2H2,vinylidene 9.614-16
 CH2CO,ketene    7.780-13
 O(CH)2O         1.649-15
 CH3CO,acetyl    1.638-16
 C2O             1.579-11
 C3O2            5.690-15
 *H              8.8436-2
 HCO             2.6779-6
 HCCO            7.308-13
 HO2             2.0070-6
 *H2             2.2298-1
 HCHO,formaldehy 3.8669-8
 HCOOH           2.9366-8
 H2O             1.8589-1
 H2O2            1.5836-7
 *O              6.1359-3
 *OH             2.7632-2
 *O2             2.0157-3
 O3              1.380-10

  * THERMODYNAMIC PROPERTIES FITTED TO 20000.K









         THERMODYNAMIC EQUILIBRIUM COMBUSTION PROPERTIES AT ASSIGNED

                                   PRESSURES

 CASE =                

             REACTANT                       MOLES         ENERGY      TEMP
                                                         KJ/KG-MOL      K
 FUEL        C2H4                         1.0000000     52579.505    300.000
 OXIDANT     O2                           3.0000000        54.358    300.000

 O/F=    1.71097  %FUEL= 36.887125  R,EQ.RATIO= 2.000000  PHI,EQ.RATIO= 2.000000

 THERMODYNAMIC PROPERTIES

 P, BAR            1.0000
 T, K             3010.02
 RHO, KG/CU M    7.1748-2
 H, KJ/KG          692.44
 U, KJ/KG         -701.33
 G, KJ/KG        -43418.4
 S, KJ/(KG)(K)    14.6547

 M, (1/n)          17.956
 (dLV/dLP)t      -1.02933
 (dLV/dLT)p        1.5691
 Cp, KJ/(KG)(K)    7.3989
 GAMMAs            1.1425
 SON VEL,M/SEC     1261.9

 MOLE FRACTIONS

 *C              3.067-10
 *CH             6.774-11
 CH2             9.684-11
 CH3             1.397-10
 CH2OH           4.799-12
 CH3O            1.142-12
 CH4             2.804-11
 CH3OH           2.158-13
 *CO             4.3254-1
 *CO2            3.9665-2
 COOH            3.1974-7
 *C2             1.054-15
 C2H             2.817-14
 C2H2,acetylene  4.888-13
 C2H2,vinylidene 1.578-15
 CH2CO,ketene    1.177-12
 O(CH)2O         1.919-15
 CH3CO,acetyl    2.557-16
 C2O             1.728-11
 C3O2            7.468-15
 *H              8.1651-2
 HCO             2.6654-6
 HCCO            9.101-13
 HO2             1.0414-6
 *H2             2.5069-1
 HCHO,formaldehy 4.4661-8
 HCOOH           2.7684-8
 H2O             1.7062-1
 H2O2            9.5282-8
 *O              3.6881-3
 *OH             2.0142-2
 *O2             9.9203-4
 O3              4.299-11

  * THERMODYNAMIC PROPERTIES FITTED TO 20000.K



