
 *******************************************************************************

         NASA-GLENN CHEMICAL EQUILIBRIUM PROGRAM CEA2, MAY 21, 2004
                   BY  BONNIE MCBRIDE AND SANFORD GORDON
      REFS: NASA RP-1311, PART I, 1994 AND NASA RP-1311, PART II, 1996

 *******************************************************************************



 problem    phi,eq.ratio=2.1,2.2,2.3,2.4,2.5,2.6,2.7,2.8,2.9,3,3.1,3.2,3.3,3.4,3.
 5,3.6,
       hp   p,bar=1,  t,k=3800
 react
   fuel=C2H4 moles=1 t,k=300
   oxid=O2 moles=3 t,k=300
   oxid=N2 moles=11.2857 t,k=300
 output
      trace=1e-16 siunits short
 end




         THERMODYNAMIC EQUILIBRIUM COMBUSTION PROPERTIES AT ASSIGNED

                                   PRESSURES

 CASE =                

             REACTANT                       MOLES         ENERGY      TEMP
                                                         KJ/KG-MOL      K
 FUEL        C2H4                         1.0000000     52579.505    300.000
 OXIDANT     O2                           3.0000000        54.358    300.000
 OXIDANT     N2                          11.2857000        53.881    300.000

 O/F=    6.99602  %FUEL= 12.506215  R,EQ.RATIO= 2.100000  PHI,EQ.RATIO= 2.100000

 THERMODYNAMIC PROPERTIES

 P, BAR            1.0000
 T, K             1851.54
 RHO, KG/CU M    1.5542-1
 H, KJ/KG          236.04
 U, KJ/KG         -407.38
 G, KJ/KG        -19365.2
 S, KJ/(KG)(K)    10.5865

 M, (1/n)          23.926
 (dLV/dLP)t      -1.00006
 (dLV/dLT)p        1.0016
 Cp, KJ/(KG)(K)    1.5805
 GAMMAs            1.2829
 SON VEL,M/SEC      908.5

 MOLE FRACTIONS

 *CH             3.183-16
 CH2             6.957-14
 CH3             3.582-11
 CH2OH           1.000-13
 CH3O            7.991-15
 CH4             1.2358-9
 CH3OH           3.575-13
 *CN             5.212-12
 *CO             1.9072-1
 *CO2            2.2605-2
 COOH            1.6100-9
 C2H2,acetylene  3.052-13
 CH2CO,ketene    1.062-12
 O(CH)2O         1.072-16
 CH3CN           5.678-16
 C2H4            7.395-16
 OCCN            1.432-15
 C2N2            1.838-15
 C2O             4.808-15
 C3O2            6.092-16
 *H              2.0754-4
 HCN             2.2837-7
 HCO             2.0063-8
 HCCO            3.597-15
 HNC             8.5305-9
 HNCO            3.1366-8
 HNO             4.734-11
 HNO2            7.787-14
 HO2             1.080-12
 *H2             1.4441-1
 HCHO,formaldehy 1.1554-8
 HCOOH           5.4500-9
 H2O             6.8814-2
 H2O2            3.101-12
 *N              6.751-11
 NCO             1.807-11
 *NH             2.697-10
 NH2             5.2485-9
 NH3             1.1005-6
 NH2OH           6.541-14
 *NO             3.7497-7
 NO2             7.621-14
 *N2             5.7323-1
 N2H2            8.799-14
 N2O             1.831-11
 N3H             6.709-16
 *O              7.9900-9
 *OH             8.3649-6
 *O2             1.6718-9

  * THERMODYNAMIC PROPERTIES FITTED TO 20000.K









         THERMODYNAMIC EQUILIBRIUM COMBUSTION PROPERTIES AT ASSIGNED

                                   PRESSURES

 CASE =                

             REACTANT                       MOLES         ENERGY      TEMP
                                                         KJ/KG-MOL      K
 FUEL        C2H4                         1.0000000     52579.505    300.000
 OXIDANT     O2                           3.0000000        54.358    300.000
 OXIDANT     N2                          11.2857000        53.881    300.000

 O/F=    6.67802  %FUEL= 13.024186  R,EQ.RATIO= 2.200000  PHI,EQ.RATIO= 2.200000

 THERMODYNAMIC PROPERTIES

 P, BAR            1.0000
 T, K             1799.51
 RHO, KG/CU M    1.5767-1
 H, KJ/KG          245.74
 U, KJ/KG         -388.50
 G, KJ/KG        -18909.4
 S, KJ/(KG)(K)    10.6447

 M, (1/n)          23.590
 (dLV/dLP)t      -1.00004
 (dLV/dLT)p        1.0011
 Cp, KJ/(KG)(K)    1.5823
 GAMMAs            1.2873
 SON VEL,M/SEC      903.6

 MOLE FRACTIONS

 *CH             1.862-16
 CH2             6.350-14
 CH3             5.459-11
 CH2OH           1.026-13
 CH3O            7.607-15
 CH4             3.0051-9
 CH3OH           5.487-13
 *CN             3.880-12
 *CO             1.9935-1
 *CO2            1.9694-2
 COOH            1.0537-9
 C2H2,acetylene  6.388-13
 CH2CO,ketene    1.858-12
 O(CH)2O         1.242-16
 CH3CN           1.689-15
 CH3CO,acetyl    1.048-16
 C2H4            2.419-15
 OCCN            1.367-15
 C2N2            2.885-15
 C2O             3.984-15
 C3O2            8.667-16
 *H              1.4240-4
 HCN             3.1582-7
 HCO             1.6572-8
 HCCO            3.896-15
 HNC             1.0492-8
 HNCO            3.4398-8
 HNO             2.011-11
 HNO2            2.275-14
 HO2             2.724-13
 *H2             1.5902-1
 HCHO,formaldehy 1.3384-8
 HCOOH           5.0636-9
 H2O             5.9955-2
 H2O2            1.086-12
 *N              2.716-11
 NCO             1.169-11
 *NH             1.433-10
 NH2             4.0506-9
 NH3             1.3984-6
 NH2OH           4.068-14
 *NO             1.5436-7
 NO2             1.721-14
 *N2             5.6184-1
 N2H2            6.391-14
 N2O             7.514-12
 N3H             3.911-16
 *O              2.4442-9
 *OH             4.0569-6
 *O2             4.076-10

  * THERMODYNAMIC PROPERTIES FITTED TO 20000.K









         THERMODYNAMIC EQUILIBRIUM COMBUSTION PROPERTIES AT ASSIGNED

                                   PRESSURES

 CASE =                

             REACTANT                       MOLES         ENERGY      TEMP
                                                         KJ/KG-MOL      K
 FUEL        C2H4                         1.0000000     52579.505    300.000
 OXIDANT     O2                           3.0000000        54.358    300.000
 OXIDANT     N2                          11.2857000        53.881    300.000

 O/F=    6.38767  %FUEL= 13.536060  R,EQ.RATIO= 2.300000  PHI,EQ.RATIO= 2.300000

 THERMODYNAMIC PROPERTIES

 P, BAR            1.0000
 T, K             1748.68
 RHO, KG/CU M    1.6003-1
 H, KJ/KG          255.32
 U, KJ/KG         -369.56
 G, KJ/KG        -18455.0
 S, KJ/(KG)(K)    10.6997

 M, (1/n)          23.267
 (dLV/dLP)t      -1.00003
 (dLV/dLT)p        1.0008
 Cp, KJ/(KG)(K)    1.5847
 GAMMAs            1.2917
 SON VEL,M/SEC      898.4

 MOLE FRACTIONS

 *CH             1.054-16
 CH2             5.656-14
 CH3             8.204-11
 CH2OH           1.025-13
 CH3O            7.043-15
 CH4             7.2765-9
 CH3OH           8.263-13
 *CN             2.841-12
 *CO             2.0752-1
 *CO2            1.7018-2
 COOH            6.724-10
 C2H2,acetylene  1.334-12
 CH2CO,ketene    3.228-12
 O(CH)2O         1.411-16
 CH3CN           5.039-15
 CH3CO,acetyl    1.761-16
 C2H4            7.901-15
 CH3CHO,ethanal  2.284-16
 OCCN            1.288-15
 C2N2            4.546-15
 C2O             3.241-15
 C3O2            1.227-15
 *H              9.5793-5
 HCN             4.3580-7
 HCO             1.3427-8
 HCCO            4.151-15
 HNC             1.2825-8
 HNCO            3.7401-8
 HNO             8.260-12
 HNO2            6.355-15
 HO2             6.524-14
 *H2             1.7317-1
 HCHO,formaldehy 1.5281-8
 HCOOH           4.6130-9
 H2O             5.1318-2
 H2O2            3.627-13
 *N              1.060-11
 NCO             7.423-12
 *NH             7.402-11
 NH2             3.0559-9
 NH3             1.7544-6
 NH2OH           2.444-14
 *NO             6.1769-8
 NO2             3.709-15
 *N2             5.5088-1
 N2H2            4.536-14
 N2O             3.000-12
 N3H             2.227-16
 *O              7.192-10
 *OH             1.9083-6
 *O2             9.499-11

  * THERMODYNAMIC PROPERTIES FITTED TO 20000.K









         THERMODYNAMIC EQUILIBRIUM COMBUSTION PROPERTIES AT ASSIGNED

                                   PRESSURES

 CASE =                

             REACTANT                       MOLES         ENERGY      TEMP
                                                         KJ/KG-MOL      K
 FUEL        C2H4                         1.0000000     52579.505    300.000
 OXIDANT     O2                           3.0000000        54.358    300.000
 OXIDANT     N2                          11.2857000        53.881    300.000

 O/F=    6.12152  %FUEL= 14.041944  R,EQ.RATIO= 2.400000  PHI,EQ.RATIO= 2.400000

 THERMODYNAMIC PROPERTIES

 P, BAR            1.0000
 T, K             1699.00
 RHO, KG/CU M    1.6251-1
 H, KJ/KG          264.79
 U, KJ/KG         -350.56
 G, KJ/KG        -18002.0
 S, KJ/(KG)(K)    10.7515

 M, (1/n)          22.956
 (dLV/dLP)t      -1.00002
 (dLV/dLT)p        1.0005
 Cp, KJ/(KG)(K)    1.5875
 GAMMAs            1.2960
 SON VEL,M/SEC      893.0

 MOLE FRACTIONS

 CH2             4.956-14
 CH3             1.228-10
 CH2OH           1.001-13
 CH3O            6.361-15
 CH4             1.7754-8
 CH3OH           1.227-12
 *CN             2.058-12
 *CO             2.1531-1
 *CO2            1.4504-2
 COOH            4.162-10
 C2H2,acetylene  2.826-12
 CH2CO,ketene    5.626-12
 O(CH)2O         1.579-16
 CH3CN           1.537-14
 CH3CO,acetyl    2.949-16
 C2H4            2.628-14
 CH3CHO,ethanal  5.514-16
 OCCN            1.207-15
 C2N2            7.294-15
 C2O             2.606-15
 C3O2            1.746-15
 *H              6.3180-5
 HCN             6.0496-7
 HCO             1.0684-8
 HCCO            4.388-15
 HNC             1.5701-8
 HNCO            4.0390-8
 HNO             3.257-12
 HNO2            1.673-15
 HO2             1.464-14
 *H2             1.8683-1
 HCHO,formaldehy 1.7240-8
 HCOOH           4.1053-9
 H2O             4.2950-2
 H2O2            1.141-13
 *N              4.004-12
 NCO             4.620-12
 *NH             3.714-11
 NH2             2.2561-9
 NH3             2.1798-6
 NH2OH           1.411-14
 *NO             2.3838-8
 NO2             7.511-16
 *N2             5.4034-1
 N2H2            3.149-14
 N2O             1.157-12
 N3H             1.238-16
 *O              2.018-10
 *OH             8.6473-7
 *O2             2.084-11

  * THERMODYNAMIC PROPERTIES FITTED TO 20000.K









         THERMODYNAMIC EQUILIBRIUM COMBUSTION PROPERTIES AT ASSIGNED

                                   PRESSURES

 CASE =                

             REACTANT                       MOLES         ENERGY      TEMP
                                                         KJ/KG-MOL      K
 FUEL        C2H4                         1.0000000     52579.505    300.000
 OXIDANT     O2                           3.0000000        54.358    300.000
 OXIDANT     N2                          11.2857000        53.881    300.000

 O/F=    5.87666  %FUEL= 14.541943  R,EQ.RATIO= 2.500000  PHI,EQ.RATIO= 2.500000

 THERMODYNAMIC PROPERTIES

 P, BAR            1.0000
 T, K             1650.40
 RHO, KG/CU M    1.6511-1
 H, KJ/KG          274.16
 U, KJ/KG         -331.49
 G, KJ/KG        -17550.5
 S, KJ/(KG)(K)    10.8002

 M, (1/n)          22.657
 (dLV/dLP)t      -1.00001
 (dLV/dLT)p        1.0004
 Cp, KJ/(KG)(K)    1.5903
 GAMMAs            1.3002
 SON VEL,M/SEC      887.4

 MOLE FRACTIONS

 CH2             4.313-14
 CH3             1.852-10
 CH2OH           9.578-14
 CH3O            5.616-15
 CH4             4.4234-8
 CH3OH           1.803-12
 *CN             1.487-12
 *CO             2.2280-1
 *CO2            1.2094-2
 COOH            2.478-10
 C2H2,acetylene  6.197-12
 CH2CO,ketene    9.955-12
 O(CH)2O         1.743-16
 CH3CN           4.895-14
 CH3CO,acetyl    4.983-16
 C2H4            9.106-14
 CH3CHO,ethanal  1.354-15
 OCCN            1.134-15
 C2N2            1.214-14
 C2O             2.091-15
 C3O2            2.521-15
 *H              4.0842-5
 HCN             8.5353-7
 HCO             8.3531-9
 HCCO            4.647-15
 HNC             1.9446-8
 HNCO            4.3380-8
 HNO             1.220-12
 HNO2            4.075-16
 HO2             3.016-15
 *H2             1.9998-1
 HCHO,formaldehy 1.9261-8
 HCOOH           3.5450-9
 H2O             3.4885-2
 H2O2            3.323-14
 *N              1.461-12
 NCO             2.818-12
 *NH             1.808-11
 NH2             1.6307-9
 NH3             2.6883-6
 NH2OH           7.777-15
 *NO             8.7795-9
 NO2             1.400-16
 *N2             5.3019-1
 N2H2            2.139-14
 N2O             4.261-13
 *O              5.342-11
 *OH             3.7390-7
 *O2             4.219-12

  * THERMODYNAMIC PROPERTIES FITTED TO 20000.K









         THERMODYNAMIC EQUILIBRIUM COMBUSTION PROPERTIES AT ASSIGNED

                                   PRESSURES

 CASE =                

             REACTANT                       MOLES         ENERGY      TEMP
                                                         KJ/KG-MOL      K
 FUEL        C2H4                         1.0000000     52579.505    300.000
 OXIDANT     O2                           3.0000000        54.358    300.000
 OXIDANT     N2                          11.2857000        53.881    300.000

 O/F=    5.65063  %FUEL= 15.036158  R,EQ.RATIO= 2.600000  PHI,EQ.RATIO= 2.600000

 THERMODYNAMIC PROPERTIES

 P, BAR            1.0000
 T, K             1602.82
 RHO, KG/CU M    1.6785-1
 H, KJ/KG          283.41
 U, KJ/KG         -312.36
 G, KJ/KG        -17100.3
 S, KJ/(KG)(K)    10.8457

 M, (1/n)          22.369
 (dLV/dLP)t      -1.00001
 (dLV/dLT)p        1.0002
 Cp, KJ/(KG)(K)    1.5929
 GAMMAs            1.3045
 SON VEL,M/SEC      881.6

 MOLE FRACTIONS

 CH2             3.781-14
 CH3             2.860-10
 CH2OH           8.993-14
 CH3O            4.856-15
 CH4             1.1455-7
 CH3OH           2.632-12
 *CN             1.085-12
 *CO             2.3005-1
 *CO2            9.7386-3
 COOH            1.400-10
 C2H2,acetylene  1.450-11
 CH2CO,ketene    1.818-11
 O(CH)2O         1.904-16
 C2H3,vinyl      1.937-16
 CH3CN           1.681-13
 CH3CO,acetyl    8.638-16
 C2H4            3.393-13
 CH3CHO,ethanal  3.443-15
 C2H6            3.036-16
 OCCN            1.085-15
 C2N2            2.156-14
 C2O             1.695-15
 C3O2            3.753-15
 *H              2.5861-5
 HCN             1.2422-6
 HCO             6.4188-9
 HCCO            5.004-15
 HNC             2.4720-8
 HNCO            4.6387-8
 HNO             4.282-13
 HO2             5.543-16
 *H2             2.1262-1
 HCHO,formaldehy 2.1343-8
 HCOOH           2.9349-9
 H2O             2.7153-2
 H2O2            8.701-15
 *N              5.138-13
 NCO             1.684-12
 *NH             8.535-12
 NH2             1.1542-9
 NH3             3.2971-6
 NH2OH           4.036-15
 *NO             3.0382-9
 *N2             5.2041-1
 N2H2            1.422-14
 N2O             1.476-13
 *O              1.312-11
 *OH             1.5201-7
 *O2             7.648-13

  * THERMODYNAMIC PROPERTIES FITTED TO 20000.K









         THERMODYNAMIC EQUILIBRIUM COMBUSTION PROPERTIES AT ASSIGNED

                                   PRESSURES

 CASE =                

             REACTANT                       MOLES         ENERGY      TEMP
                                                         KJ/KG-MOL      K
 FUEL        C2H4                         1.0000000     52579.505    300.000
 OXIDANT     O2                           3.0000000        54.358    300.000
 OXIDANT     N2                          11.2857000        53.881    300.000

 O/F=    5.44135  %FUEL= 15.524691  R,EQ.RATIO= 2.700000  PHI,EQ.RATIO= 2.700000

 THERMODYNAMIC PROPERTIES

 P, BAR            1.0000
 T, K             1556.20
 RHO, KG/CU M    1.7073-1
 H, KJ/KG          292.56
 U, KJ/KG         -293.16
 G, KJ/KG        -16651.3
 S, KJ/(KG)(K)    10.8879

 M, (1/n)          22.091
 (dLV/dLP)t      -1.00001
 (dLV/dLT)p        1.0002
 Cp, KJ/(KG)(K)    1.5951
 GAMMAs            1.3090
 SON VEL,M/SEC      875.6

 MOLE FRACTIONS

 CH2             3.421-14
 CH3             4.641-10
 CH2OH           8.296-14
 CH3O            4.114-15
 CH4             3.1710-7
 CH3OH           3.825-12
 *CN             8.189-13
 *CO             2.3711-1
 *CO2            7.3926-3
 COOH            7.324-11
 C2H2,acetylene  3.810-11
 C2H2,vinylidene 1.600-16
 CH2CO,ketene    3.519-11
 O(CH)2O         2.060-16
 C2H3,vinyl      4.544-16
 CH3CN           6.560-13
 CH3CO,acetyl    1.578-15
 C2H4            1.435-12
 CH3CHO,ethanal  9.328-15
 CH3COOH         1.586-16
 C2H6            1.867-15
 OCCN            1.082-15
 C2N2            4.297-14
 C2O             1.423-15
 C3O2            5.911-15
 *H              1.6025-5
 HCN             1.9130-6
 HCO             4.8475-9
 HCCO            5.616-15
 HNC             3.3075-8
 HNCO            4.9431-8
 HNO             1.370-13
 *H2             2.2471-1
 HCHO,formaldehy 2.3487-8
 HCOOH           2.2761-9
 H2O             1.9776-2
 H2O2            1.948-15
 *N              1.736-13
 NCO             9.839-13
 *NH             3.897-12
 NH2             7.996-10
 NH3             4.0283-6
 NH2OH           1.924-15
 *NO             9.618-10
 *N2             5.1099-1
 N2H2            9.246-15
 N2O             4.686-14
 *O              2.906-12
 *OH             5.6619-8
 *O2             1.178-13

  * THERMODYNAMIC PROPERTIES FITTED TO 20000.K









         THERMODYNAMIC EQUILIBRIUM COMBUSTION PROPERTIES AT ASSIGNED

                                   PRESSURES

 CASE =                

             REACTANT                       MOLES         ENERGY      TEMP
                                                         KJ/KG-MOL      K
 FUEL        C2H4                         1.0000000     52579.505    300.000
 OXIDANT     O2                           3.0000000        54.358    300.000
 OXIDANT     N2                          11.2857000        53.881    300.000

 O/F=    5.24702  %FUEL= 16.007637  R,EQ.RATIO= 2.800000  PHI,EQ.RATIO= 2.800000

 THERMODYNAMIC PROPERTIES

 P, BAR            1.0000
 T, K             1510.47
 RHO, KG/CU M    1.7376-1
 H, KJ/KG          301.60
 U, KJ/KG         -273.89
 G, KJ/KG        -16202.8
 S, KJ/(KG)(K)    10.9267

 M, (1/n)          21.823
 (dLV/dLP)t      -1.00001
 (dLV/dLT)p        1.0001
 Cp, KJ/(KG)(K)    1.5966
 GAMMAs            1.3135
 SON VEL,M/SEC      869.4

 MOLE FRACTIONS

 CH2             3.370-14
 CH3             8.369-10
 CH2OH           7.525-14
 CH3O            3.419-15
 CH4             9.9369-7
 CH3OH           5.551-12
 *CN             6.731-13
 *CO             2.4403-1
 *CO2            5.0151-3
 COOH            3.360-11
 C2H2,acetylene  1.255-10
 C2H2,vinylidene 3.447-16
 CH2CO,ketene    7.637-11
 O(CH)2O         2.212-16
 C2H3,vinyl      1.324-15
 CH3CN           3.251-12
 CH3CO,acetyl    3.214-15
 C2H4            7.693-12
 CH3CHO,ethanal  2.852-14
 CH3COOH         3.034-16
 C2H5            1.332-16
 C2H6            1.469-14
 OCCN            1.187-15
 C2N2            1.070-13
 C2O             1.304-15
 C3O2            1.041-14
 *H              9.7064-6
 HCN             3.2929-6
 HCO             3.5966-9
 HCCO            6.936-15
 HNC             4.9177-8
 HNCO            5.2530-8
 HNO             3.779-14
 *H2             2.3625-1
 HCHO,formaldehy 2.5696-8
 HCOOH           1.5685-9
 H2O             1.2778-2
 H2O2            3.340-16
 *N              5.614-14
 NCO             5.617-13
 *NH             1.718-12
 NH2             5.420-10
 NH3             4.9096-6
 NH2OH           7.983-16
 *NO             2.633-10
 *N2             5.0190-1
 N2H2            5.876-15
 N2O             1.288-14
 *O              5.484-13
 *OH             1.8276-8
 *O2             1.379-14

  * THERMODYNAMIC PROPERTIES FITTED TO 20000.K









         THERMODYNAMIC EQUILIBRIUM COMBUSTION PROPERTIES AT ASSIGNED

                                   PRESSURES

 CASE =                

             REACTANT                       MOLES         ENERGY      TEMP
                                                         KJ/KG-MOL      K
 FUEL        C2H4                         1.0000000     52579.505    300.000
 OXIDANT     O2                           3.0000000        54.358    300.000
 OXIDANT     N2                          11.2857000        53.881    300.000

 O/F=    5.06609  %FUEL= 16.485093  R,EQ.RATIO= 2.900000  PHI,EQ.RATIO= 2.900000

 THERMODYNAMIC PROPERTIES

 P, BAR            1.0000
 T, K             1465.59
 RHO, KG/CU M    1.7696-1
 H, KJ/KG          310.54
 U, KJ/KG         -254.55
 G, KJ/KG        -15754.2
 S, KJ/(KG)(K)    10.9613

 M, (1/n)          21.564
 (dLV/dLP)t      -1.00003
 (dLV/dLT)p        1.0003
 Cp, KJ/(KG)(K)    1.5977
 GAMMAs            1.3183
 SON VEL,M/SEC      863.1

 MOLE FRACTIONS

 CH2             4.279-14
 CH3             1.9887-9
 CH2OH           6.715-14
 CH3O            2.787-15
 CH4             4.1898-6
 CH3OH           8.057-12
 *CN             7.128-13
 *CO             2.5086-1
 *CO2            2.5671-3
 COOH            1.140-11
 C2H2,acetylene  7.282-10
 C2H2,vinylidene 1.285-15
 CH2CO,ketene    2.205-10
 O(CH)2O         2.358-16
 C2H3,vinyl      6.744-15
 CH3CN           2.881-11
 CH3CO,acetyl    8.660-15
 C2H4            7.374-11
 CH3CHO,ethanal  1.170-13
 CH3COOH         5.872-16
 C2H5            1.120-15
 C2H6            2.086-13
 OCCN            1.695-15
 C2N2            4.684-13
 C2O             1.542-15
 C3H3,2-propynl  1.414-16
 C3H4,allene     2.898-16
 C3H4,propyne    8.339-16
 C3O2            2.429-14
 *H              5.7393-6
 HCN             7.5120-6
 HCO             2.6201-9
 HCCO            1.117-14
 HNC             9.6303-8
 HNCO            5.5704-8
 HNO             7.568-15
 *H2             2.4723-1
 HCHO,formaldehy 2.7973-8
 HCOOH           8.113-10
 H2O             6.1840-3
 *N              1.733-14
 NCO             3.128-13
 *NH             7.296-13
 NH2             3.591-10
 NH3             5.9759-6
 NH2OH           2.431-16
 *NO             5.246-11
 *N2             4.9314-1
 N2H2            3.646-15
 N2O             2.579-15
 *O              7.414-14
 *OH             4.3058-9
 *O2             8.705-16

  * THERMODYNAMIC PROPERTIES FITTED TO 20000.K









         THERMODYNAMIC EQUILIBRIUM COMBUSTION PROPERTIES AT ASSIGNED

                                   PRESSURES

 CASE =                

             REACTANT                       MOLES         ENERGY      TEMP
                                                         KJ/KG-MOL      K
 FUEL        C2H4                         1.0000000     52579.505    300.000
 OXIDANT     O2                           3.0000000        54.358    300.000
 OXIDANT     N2                          11.2857000        53.881    300.000

 O/F=    4.89722  %FUEL= 16.957151  R,EQ.RATIO= 3.000000  PHI,EQ.RATIO= 3.000000

 THERMODYNAMIC PROPERTIES

 P, BAR            1.0000
 T, K             1422.82
 RHO, KG/CU M    1.8027-1
 H, KJ/KG          319.38
 U, KJ/KG         -235.34
 G, KJ/KG        -15316.3
 S, KJ/(KG)(K)    10.9893

 M, (1/n)          21.326
 (dLV/dLP)t      -1.00054
 (dLV/dLT)p        1.0049
 Cp, KJ/(KG)(K)    1.6185
 GAMMAs            1.3205
 SON VEL,M/SEC      855.9

 MOLE FRACTIONS

 CH2             5.929-13
 CH3             5.1765-8
 CH2OH           5.908-14
 CH3O            2.239-15
 CH4             1.9425-4
 CH3OH           1.156-11
 *CN             8.279-12
 *CO             2.5731-1
 *CO2            1.1848-4
 COOH            3.460-13
 C2H             7.644-15
 C2H2,acetylene  5.1462-7
 C2H2,vinylidene 5.800-13
 CH2CO,ketene    7.0028-9
 O(CH)2O         2.489-16
 C2H3,vinyl      4.159-12
 CH3CN           3.1171-8
 CH3CO,acetyl    2.557-13
 C2H4            8.5980-8
 CH3CHO,ethanal  5.261-12
 CH3COOH         1.126-15
 C2H5            1.139-12
 C2H6            3.597-10
 C2H5OH          2.077-16
 OCCN            2.660-14
 C2N2            2.508-10
 C2O             1.999-14
 C3H3,2-propynl  2.730-12
 C3H4,allene     8.174-12
 C3H4,propyne    2.392-11
 C3H4,cyclo-     4.436-15
 C3H5,allyl      7.134-14
 C3H6,propylene  2.370-12
 C3H6,cyclo-     3.580-15
 C3H8            1.977-15
 C3O2            6.251-13
 C4H2,butadiyne  3.878-13
 C4H6,butadiene  4.903-15
 C4H6,1butyne    1.410-16
 C4H6,2butyne    1.972-16
 C4N2            1.749-16
 C6H6            7.759-16
 *H              3.3629-6
 HCN             1.8907-4
 HCO             1.8906-9
 HCCO            1.970-13
 HNC             2.0768-6
 HNCO            5.8814-8
 HNO             1.351-16
 *H2             2.5705-1
 HCHO,formaldehy 3.0205-8
 HCOOH           3.761-11
 H2O             2.6823-4
 *N              5.281-15
 NCO             1.728-13
 *NH             3.058-13
 NH2             2.353-10
 NH3             7.2177-6
 *NO             9.345-13
 *N2             4.8485-1
 N2H2            2.239-15
 *O              8.920-16
 *OH             9.051-11

  * THERMODYNAMIC PROPERTIES FITTED TO 20000.K









         THERMODYNAMIC EQUILIBRIUM COMBUSTION PROPERTIES AT ASSIGNED

                                   PRESSURES

 CASE =                

             REACTANT                       MOLES         ENERGY      TEMP
                                                         KJ/KG-MOL      K
 FUEL        C2H4                         1.0000000     52579.505    300.000
 OXIDANT     O2                           3.0000000        54.358    300.000
 OXIDANT     N2                          11.2857000        53.881    300.000

 O/F=    4.73924  %FUEL= 17.423903  R,EQ.RATIO= 3.100000  PHI,EQ.RATIO= 3.100000

 THERMODYNAMIC PROPERTIES

 P, BAR            1.0000
 T, K             1415.37
 RHO, KG/CU M    1.8070-1
 H, KJ/KG          328.12
 U, KJ/KG         -225.30
 G, KJ/KG        -15252.0
 S, KJ/(KG)(K)    11.0078

 M, (1/n)          21.265
 MW, MOL WT        21.089
 (dLV/dLP)t      -1.00060
 (dLV/dLT)p        1.0061
 Cp, KJ/(KG)(K)    1.6456
 GAMMAs            1.3156
 SON VEL,M/SEC      853.3

 MOLE FRACTIONS

 CH2             6.649-13
 CH3             6.5598-8
 CH2OH           5.797-14
 CH3O            2.161-15
 CH4             2.7548-4
 CH3OH           1.249-11
 *CN             8.821-12
 *CO             2.5311-1
 *CO2            9.5019-5
 COOH            2.594-13
 C2H             1.024-14
 C2H2,acetylene  8.1202-7
 C2H2,vinylidene 8.440-13
 CH2CO,ketene    9.0063-9
 O(CH)2O         2.471-16
 C2H3,vinyl      6.457-12
 CH3CN           5.3411-8
 CH3CO,acetyl    3.273-13
 C2H4            1.5100-7
 CH3CHO,ethanal  7.327-12
 CH3COOH         1.267-15
 C2H5            1.969-12
 C2H6            6.893-10
 C2H5OH          3.060-16
 OCCN            2.954-14
 C2N2            3.682-10
 C2O             2.151-14
 C3H3,2-propynl  5.459-12
 C3H4,allene     1.765-11
 C3H4,propyne    5.182-11
 C3H4,cyclo-     9.226-15
 C3H5,allyl      1.578-13
 C3H6,propylene  5.676-12
 C3H6,cyclo-     8.446-15
 C3H6O,acetone   1.715-16
 C3H8            5.138-15
 C3O2            7.516-13
 C4H2,butadiyne  9.499-13
 C4H6,butadiene  1.472-14
 C4H6,1butyne    4.141-16
 C4H6,2butyne    5.852-16
 C4N2            3.990-16
 C5H6,1,3cyclo-  2.313-16
 C6H6            4.061-15
 *H              3.0543-6
 HCN             2.3354-4
 HCO             1.7601-9
 HCCO            2.260-13
 HNC             2.4949-6
 HNCO            5.8485-8
 *H2             2.6107-1
 HCHO,formaldehy 3.0495-8
 HCOOH           3.070-11
 H2O             2.1908-4
 *N              4.215-15
 NCO             1.516-13
 *NH             2.608-13
 NH2             2.192-10
 NH3             7.5734-6
 *NO             6.375-13
 *N2             4.7673-1
 N2H2            2.057-15
 *O              5.686-16
 *OH             6.433-11
 C(gr)           8.2511-3

  * THERMODYNAMIC PROPERTIES FITTED TO 20000.K









         THERMODYNAMIC EQUILIBRIUM COMBUSTION PROPERTIES AT ASSIGNED

                                   PRESSURES

 CASE =                

             REACTANT                       MOLES         ENERGY      TEMP
                                                         KJ/KG-MOL      K
 FUEL        C2H4                         1.0000000     52579.505    300.000
 OXIDANT     O2                           3.0000000        54.358    300.000
 OXIDANT     N2                          11.2857000        53.881    300.000

 O/F=    4.59114  %FUEL= 17.885437  R,EQ.RATIO= 3.200000  PHI,EQ.RATIO= 3.200000

 THERMODYNAMIC PROPERTIES

 P, BAR            1.0000
 T, K             1408.56
 RHO, KG/CU M    1.8106-1
 H, KJ/KG          336.76
 U, KJ/KG         -215.55
 G, KJ/KG        -15194.0
 S, KJ/(KG)(K)    11.0260

 M, (1/n)          21.204
 MW, MOL WT        20.856
 (dLV/dLP)t      -1.00065
 (dLV/dLT)p        1.0065
 Cp, KJ/(KG)(K)    1.6593
 GAMMAs            1.3137
 SON VEL,M/SEC      851.8

 MOLE FRACTIONS

 CH2             5.765-13
 CH3             6.3702-8
 CH2OH           5.698-14
 CH3O            2.093-15
 CH4             2.9700-4
 CH3OH           1.343-11
 *CN             7.284-12
 *CO             2.4888-1
 *CO2            9.9181-5
 COOH            2.547-13
 C2H             8.152-15
 C2H2,acetylene  7.5208-7
 C2H2,vinylidene 7.254-13
 CH2CO,ketene    8.8523-9
 O(CH)2O         2.452-16
 C2H3,vinyl      5.896-12
 CH3CN           5.3400-8
 CH3CO,acetyl    3.205-13
 C2H4            1.5457-7
 CH3CHO,ethanal  7.760-12
 CH3COOH         1.412-15
 C2H5            1.986-12
 C2H6            7.658-10
 C2H5OH          3.418-16
 OCCN            2.532-14
 C2N2            3.185-10
 C2O             1.791-14
 C3H3,2-propynl  4.908-12
 C3H4,allene     1.705-11
 C3H4,propyne    5.019-11
 C3H4,cyclo-     8.604-15
 C3H5,allyl      1.560-13
 C3H6,propylene  6.040-12
 C3H6,cyclo-     8.861-15
 C3H6O,acetone   1.904-16
 C3H8            5.901-15
 C3O2            6.928-13
 C4H2,butadiyne  8.021-13
 C4H6,butadiene  1.504-14
 C4H6,1butyne    4.145-16
 C4H6,2butyne    5.915-16
 C4N2            3.150-16
 C5H6,1,3cyclo-  2.345-16
 C6H6            4.210-15
 *H              2.7946-6
 HCN             2.2118-4
 HCO             1.6460-9
 HCCO            1.997-13
 HNC             2.3028-6
 HNCO            5.8111-8
 *H2             2.6498-1
 HCHO,formaldehy 3.0754-8
 HCOOH           3.262-11
 H2O             2.3306-4
 *N              3.421-15
 NCO             1.341-13
 *NH             2.250-13
 NH2             2.055-10
 NH3             7.9249-6
 *NO             5.736-13
 *N2             4.6884-1
 N2H2            1.902-15
 *O              4.805-16
 *OH             6.016-11
 C(gr)           1.6431-2

  * THERMODYNAMIC PROPERTIES FITTED TO 20000.K









         THERMODYNAMIC EQUILIBRIUM COMBUSTION PROPERTIES AT ASSIGNED

                                   PRESSURES

 CASE =                

             REACTANT                       MOLES         ENERGY      TEMP
                                                         KJ/KG-MOL      K
 FUEL        C2H4                         1.0000000     52579.505    300.000
 OXIDANT     O2                           3.0000000        54.358    300.000
 OXIDANT     N2                          11.2857000        53.881    300.000

 O/F=    4.45202  %FUEL= 18.341841  R,EQ.RATIO= 3.300000  PHI,EQ.RATIO= 3.300000

 THERMODYNAMIC PROPERTIES

 P, BAR            1.0000
 T, K             1401.94
 RHO, KG/CU M    1.8141-1
 H, KJ/KG          345.31
 U, KJ/KG         -205.95
 G, KJ/KG        -15137.6
 S, KJ/(KG)(K)    11.0439

 M, (1/n)          21.145
 MW, MOL WT        20.631
 (dLV/dLP)t      -1.00069
 (dLV/dLT)p        1.0070
 Cp, KJ/(KG)(K)    1.6729
 GAMMAs            1.3118
 SON VEL,M/SEC      850.4

 MOLE FRACTIONS

 CH2             5.009-13
 CH3             6.1850-8
 CH2OH           5.598-14
 CH3O            2.026-15
 CH4             3.1945-4
 CH3OH           1.441-11
 *CN             6.035-12
 *CO             2.4480-1
 *CO2            1.0344-4
 COOH            2.500-13
 C2H             6.514-15
 C2H2,acetylene  6.9722-7
 C2H2,vinylidene 6.249-13
 CH2CO,ketene    8.6990-9
 O(CH)2O         2.432-16
 C2H3,vinyl      5.388-12
 CH3CN           5.3349-8
 CH3CO,acetyl    3.137-13
 C2H4            1.5801-7
 CH3CHO,ethanal  8.202-12
 CH3COOH         1.568-15
 C2H5            2.002-12
 C2H6            8.479-10
 C2H5OH          3.804-16
 OCCN            2.177-14
 C2N2            2.762-10
 C2O             1.497-14
 C3H3,2-propynl  4.419-12
 C3H4,allene     1.646-11
 C3H4,propyne    4.859-11
 C3H4,cyclo-     8.027-15
 C3H5,allyl      1.540-13
 C3H6,propylene  6.410-12
 C3H6,cyclo-     9.274-15
 C3H6O,acetone   2.106-16
 C3H8            6.747-15
 C3O2            6.394-13
 C4H2,butadiyne  6.791-13
 C4H6,butadiene  1.533-14
 C4H6,1butyne    4.142-16
 C4H6,2butyne    5.969-16
 C4N2            2.498-16
 C5H6,1,3cyclo-  2.374-16
 C6H6            4.355-15
 *H              2.5607-6
 HCN             2.0963-4
 HCO             1.5408-9
 HCCO            1.769-13
 HNC             2.1281-6
 HNCO            5.7729-8
 *H2             2.6877-1
 HCHO,formaldehy 3.0994-8
 HCOOH           3.459-11
 H2O             2.4754-4
 *N              2.787-15
 NCO             1.189-13
 *NH             1.946-13
 NH2             1.927-10
 NH3             8.2799-6
 *NO             5.170-13
 *N2             4.6120-1
 N2H2            1.760-15
 *O              4.074-16
 *OH             5.631-11
 C(gr)           2.4343-2

  * THERMODYNAMIC PROPERTIES FITTED TO 20000.K









         THERMODYNAMIC EQUILIBRIUM COMBUSTION PROPERTIES AT ASSIGNED

                                   PRESSURES

 CASE =                

             REACTANT                       MOLES         ENERGY      TEMP
                                                         KJ/KG-MOL      K
 FUEL        C2H4                         1.0000000     52579.505    300.000
 OXIDANT     O2                           3.0000000        54.358    300.000
 OXIDANT     N2                          11.2857000        53.881    300.000

 O/F=    4.32107  %FUEL= 18.793199  R,EQ.RATIO= 3.400000  PHI,EQ.RATIO= 3.400000

 THERMODYNAMIC PROPERTIES

 P, BAR            1.0000
 T, K             1395.50
 RHO, KG/CU M    1.8174-1
 H, KJ/KG          353.76
 U, KJ/KG         -196.47
 G, KJ/KG        -15082.6
 S, KJ/(KG)(K)    11.0615

 M, (1/n)          21.087
 MW, MOL WT        20.413
 (dLV/dLP)t      -1.00074
 (dLV/dLT)p        1.0076
 Cp, KJ/(KG)(K)    1.6866
 GAMMAs            1.3099
 SON VEL,M/SEC      849.0

 MOLE FRACTIONS

 CH2             4.362-13
 CH3             6.0045-8
 CH2OH           5.497-14
 CH3O            1.961-15
 CH4             3.4287-4
 CH3OH           1.542-11
 *CN             5.018-12
 *CO             2.4084-1
 *CO2            1.0778-4
 COOH            2.454-13
 C2H             5.225-15
 C2H2,acetylene  6.4698-7
 C2H2,vinylidene 5.396-13
 CH2CO,ketene    8.5470-9
 O(CH)2O         2.410-16
 C2H3,vinyl      4.928-12
 CH3CN           5.3264-8
 CH3CO,acetyl    3.070-13
 C2H4            1.6133-7
 CH3CHO,ethanal  8.653-12
 CH3COOH         1.737-15
 C2H5            2.015-12
 C2H6            9.359-10
 C2H5OH          4.220-16
 OCCN            1.876-14
 C2N2            2.401-10
 C2O             1.254-14
 C3H3,2-propynl  3.983-12
 C3H4,allene     1.589-11
 C3H4,propyne    4.702-11
 C3H4,cyclo-     7.491-15
 C3H5,allyl      1.519-13
 C3H6,propylene  6.787-12
 C3H6,cyclo-     9.687-15
 C3H6O,acetone   2.322-16
 C3H8            7.682-15
 C3O2            5.909-13
 C4H2,butadiyne  5.764-13
 C4H6,butadiene  1.561-14
 C4H6,1butyne    4.135-16
 C4H6,2butyne    6.014-16
 C4N2            1.988-16
 C5H6,1,3cyclo-  2.399-16
 C6H6            4.497-15
 *H              2.3496-6
 HCN             1.9883-4
 HCO             1.4436-9
 HCCO            1.570-13
 HNC             1.9690-6
 HNCO            5.7339-8
 *H2             2.7243-1
 HCHO,formaldehy 3.1216-8
 HCOOH           3.663-11
 H2O             2.6250-4
 *N              2.278-15
 NCO             1.056-13
 *NH             1.688-13
 NH2             1.809-10
 NH3             8.6383-6
 *NO             4.669-13
 *N2             4.5380-1
 N2H2            1.631-15
 *O              3.464-16
 *OH             5.276-11
 C(gr)           3.2001-2

  * THERMODYNAMIC PROPERTIES FITTED TO 20000.K









         THERMODYNAMIC EQUILIBRIUM COMBUSTION PROPERTIES AT ASSIGNED

                                   PRESSURES

 CASE =                

             REACTANT                       MOLES         ENERGY      TEMP
                                                         KJ/KG-MOL      K
 FUEL        C2H4                         1.0000000     52579.505    300.000
 OXIDANT     O2                           3.0000000        54.358    300.000
 OXIDANT     N2                          11.2857000        53.881    300.000

 O/F=    4.19761  %FUEL= 19.239595  R,EQ.RATIO= 3.500000  PHI,EQ.RATIO= 3.500000

 THERMODYNAMIC PROPERTIES

 P, BAR            1.0000
 T, K             1389.23
 RHO, KG/CU M    1.8207-1
 H, KJ/KG          362.12
 U, KJ/KG         -187.12
 G, KJ/KG        -15028.9
 S, KJ/(KG)(K)    11.0788

 M, (1/n)          21.030
 MW, MOL WT        20.202
 (dLV/dLP)t      -1.00079
 (dLV/dLT)p        1.0081
 Cp, KJ/(KG)(K)    1.7002
 GAMMAs            1.3081
 SON VEL,M/SEC      847.6

 MOLE FRACTIONS

 CH2             3.806-13
 CH3             5.8290-8
 CH2OH           5.396-14
 CH3O            1.898-15
 CH4             3.6725-4
 CH3OH           1.647-11
 *CN             4.186-12
 *CO             2.3701-1
 *CO2            1.1222-4
 COOH            2.409-13
 C2H             4.207-15
 C2H2,acetylene  6.0093-7
 C2H2,vinylidene 4.669-13
 CH2CO,ketene    8.3965-9
 O(CH)2O         2.389-16
 C2H3,vinyl      4.513-12
 CH3CN           5.3147-8
 CH3CO,acetyl    3.003-13
 C2H4            1.6452-7
 CH3CHO,ethanal  9.112-12
 CH3COOH         1.920-15
 C2H5            2.026-12
 C2H6            1.0300-9
 C2H5OH          4.667-16
 OCCN            1.621-14
 C2N2            2.092-10
 C2O             1.055-14
 C3H3,2-propynl  3.594-12
 C3H4,allene     1.533-11
 C3H4,propyne    4.550-11
 C3H4,cyclo-     6.994-15
 C3H5,allyl      1.497-13
 C3H6,propylene  7.170-12
 C3H6,cyclo-     1.010-14
 C3H6O,acetone   2.552-16
 C3H8            8.713-15
 C3O2            5.468-13
 C4H2,butadiyne  4.905-13
 C4H6,butadiene  1.586-14
 C4H6,1butyne    4.122-16
 C4H6,2butyne    6.052-16
 C4N2            1.590-16
 C5H6,1,3cyclo-  2.422-16
 C6H6            4.635-15
 *H              2.1589-6
 HCN             1.8872-4
 HCO             1.3538-9
 HCCO            1.395-13
 HNC             1.8239-6
 HNCO            5.6943-8
 *H2             2.7597-1
 HCHO,formaldehy 3.1423-8
 HCOOH           3.872-11
 H2O             2.7795-4
 *N              1.870-15
 NCO             9.401-14
 *NH             1.467-13
 NH2             1.699-10
 NH3             8.9997-6
 *NO             4.223-13
 *N2             4.4664-1
 N2H2            1.512-15
 *O              2.954-16
 *OH             4.948-11
 C(gr)           3.9416-2

  * THERMODYNAMIC PROPERTIES FITTED TO 20000.K









         THERMODYNAMIC EQUILIBRIUM COMBUSTION PROPERTIES AT ASSIGNED

                                   PRESSURES

 CASE =                

             REACTANT                       MOLES         ENERGY      TEMP
                                                         KJ/KG-MOL      K
 FUEL        C2H4                         1.0000000     52579.505    300.000
 OXIDANT     O2                           3.0000000        54.358    300.000
 OXIDANT     N2                          11.2857000        53.881    300.000

 O/F=    4.08101  %FUEL= 19.681111  R,EQ.RATIO= 3.600000  PHI,EQ.RATIO= 3.600000

 THERMODYNAMIC PROPERTIES

 P, BAR            1.0000
 T, K             1383.13
 RHO, KG/CU M    1.8239-1
 H, KJ/KG          370.38
 U, KJ/KG         -177.90
 G, KJ/KG        -14976.5
 S, KJ/(KG)(K)    11.0958

 M, (1/n)          20.975
 MW, MOL WT        19.997
 (dLV/dLP)t      -1.00085
 (dLV/dLT)p        1.0087
 Cp, KJ/(KG)(K)    1.7139
 GAMMAs            1.3063
 SON VEL,M/SEC      846.3

 MOLE FRACTIONS

 CH2             3.328-13
 CH3             5.6585-8
 CH2OH           5.296-14
 CH3O            1.837-15
 CH4             3.9259-4
 CH3OH           1.756-11
 *CN             3.503-12
 *CO             2.3329-1
 *CO2            1.1674-4
 COOH            2.364-13
 C2H             3.400-15
 C2H2,acetylene  5.5869-7
 C2H2,vinylidene 4.049-13
 CH2CO,ketene    8.2478-9
 O(CH)2O         2.366-16
 C2H3,vinyl      4.136-12
 CH3CN           5.3003-8
 CH3CO,acetyl    2.937-13
 C2H4            1.6759-7
 CH3CHO,ethanal  9.578-12
 CH3COOH         2.115-15
 C2H5            2.034-12
 C2H6            1.1303-9
 C2H5OH          5.146-16
 OCCN            1.404-14
 C2N2            1.828-10
 C2O             8.893-15
 C3H3,2-propynl  3.248-12
 C3H4,allene     1.480-11
 C3H4,propyne    4.402-11
 C3H4,cyclo-     6.533-15
 C3H5,allyl      1.474-13
 C3H6,propylene  7.558-12
 C3H6,cyclo-     1.051-14
 C3H6O,acetone   2.798-16
 C3H8            9.845-15
 C3O2            5.066-13
 C4H2,butadiyne  4.185-13
 C4H6,butadiene  1.610-14
 C4H6,1butyne    4.105-16
 C4H6,2butyne    6.082-16
 C4N2            1.276-16
 C5H6,1,3cyclo-  2.441-16
 C6H6            4.769-15
 *H              1.9865-6
 HCN             1.7926-4
 HCO             1.2707-9
 HCCO            1.243-13
 HNC             1.6915-6
 HNCO            5.6543-8
 *H2             2.7940-1
 HCHO,formaldehy 3.1613-8
 HCOOH           4.088-11
 H2O             2.9389-4
 *N              1.540-15
 NCO             8.386-14
 *NH             1.278-13
 NH2             1.597-10
 NH3             9.3640-6
 *NO             3.827-13
 *N2             4.3971-1
 N2H2            1.403-15
 *O              2.526-16
 *OH             4.644-11
 C(gr)           4.6600-2

  * THERMODYNAMIC PROPERTIES FITTED TO 20000.K



