
 *******************************************************************************

         NASA-GLENN CHEMICAL EQUILIBRIUM PROGRAM CEA2, MAY 21, 2004
                   BY  BONNIE MCBRIDE AND SANFORD GORDON
      REFS: NASA RP-1311, PART I, 1994 AND NASA RP-1311, PART II, 1996

 *******************************************************************************



 problem    phi,eq.ratio=3.7,3.8,3.9,4,
       hp   p,bar=1,  t,k=3800
 react
   fuel=C2H4 moles=1 t,k=300
   oxid=O2 moles=3 t,k=300
   oxid=N2 moles=11.2857 t,k=300
 output
      trace=1e-16 siunits short
 end




         THERMODYNAMIC EQUILIBRIUM COMBUSTION PROPERTIES AT ASSIGNED

                                   PRESSURES

 CASE =                

             REACTANT                       MOLES         ENERGY      TEMP
                                                         KJ/KG-MOL      K
 FUEL        C2H4                         1.0000000     52579.505    300.000
 OXIDANT     O2                           3.0000000        54.358    300.000
 OXIDANT     N2                          11.2857000        53.881    300.000

 O/F=    3.97072  %FUEL= 20.117824  R,EQ.RATIO= 3.700000  PHI,EQ.RATIO= 3.700000

 THERMODYNAMIC PROPERTIES

 P, BAR            1.0000
 T, K             1377.18
 RHO, KG/CU M    1.8269-1
 H, KJ/KG          378.56
 U, KJ/KG         -168.81
 G, KJ/KG        -14925.5
 S, KJ/(KG)(K)    11.1126

 M, (1/n)          20.920
 MW, MOL WT        19.799
 (dLV/dLP)t      -1.00090
 (dLV/dLT)p        1.0093
 Cp, KJ/(KG)(K)    1.7276
 GAMMAs            1.3045
 SON VEL,M/SEC      845.0

 MOLE FRACTIONS

 CH2             2.916-13
 CH3             5.4931-8
 CH2OH           5.196-14
 CH3O            1.778-15
 CH4             4.1890-4
 CH3OH           1.868-11
 *CN             2.940-12
 *CO             2.2969-1
 *CO2            1.2135-4
 COOH            2.321-13
 C2H             2.758-15
 C2H2,acetylene  5.1993-7
 C2H2,vinylidene 3.520-13
 CH2CO,ketene    8.1011-9
 O(CH)2O         2.343-16
 C2H3,vinyl      3.795-12
 CH3CN           5.2833-8
 CH3CO,acetyl    2.872-13
 C2H4            1.7055-7
 CH3CHO,ethanal  1.005-11
 CH3COOH         2.325-15
 C2H5            2.041-12
 C2H6            1.2371-9
 C2H5OH          5.658-16
 OCCN            1.219-14
 C2N2            1.601-10
 C2O             7.522-15
 C3H3,2-propynl  2.938-12
 C3H4,allene     1.428-11
 C3H4,propyne    4.259-11
 C3H4,cyclo-     6.106-15
 C3H5,allyl      1.451-13
 C3H6,propylene  7.952-12
 C3H6,cyclo-     1.091-14
 C3H6O,acetone   3.059-16
 C3H8            1.108-14
 C3O2            4.700-13
 C4H2,butadiyne  3.579-13
 C4H6,butadiene  1.632-14
 C4H6,1butyne    4.085-16
 C4H6,2butyne    6.106-16
 C4N2            1.028-16
 C5H6,1,3cyclo-  2.458-16
 C6H6            4.900-15
 *H              1.8302-6
 HCN             1.7040-4
 HCO             1.1938-9
 HCCO            1.109-13
 HNC             1.5706-6
 HNCO            5.6138-8
 *H2             2.8272-1
 HCHO,formaldehy 3.1789-8
 HCOOH           4.310-11
 H2O             3.1031-4
 *N              1.272-15
 NCO             7.495-14
 *NH             1.115-13
 NH2             1.502-10
 NH3             9.7310-6
 *NO             3.474-13
 *N2             4.3299-1
 N2H2            1.304-15
 *O              2.166-16
 *OH             4.364-11
 C(gr)           5.3563-2

  * THERMODYNAMIC PROPERTIES FITTED TO 20000.K









         THERMODYNAMIC EQUILIBRIUM COMBUSTION PROPERTIES AT ASSIGNED

                                   PRESSURES

 CASE =                

             REACTANT                       MOLES         ENERGY      TEMP
                                                         KJ/KG-MOL      K
 FUEL        C2H4                         1.0000000     52579.505    300.000
 OXIDANT     O2                           3.0000000        54.358    300.000
 OXIDANT     N2                          11.2857000        53.881    300.000

 O/F=    3.86622  %FUEL= 20.549815  R,EQ.RATIO= 3.800000  PHI,EQ.RATIO= 3.800000

 THERMODYNAMIC PROPERTIES

 P, BAR            1.0000
 T, K             1371.40
 RHO, KG/CU M    1.8299-1
 H, KJ/KG          386.65
 U, KJ/KG         -159.83
 G, KJ/KG        -14875.6
 S, KJ/(KG)(K)    11.1290

 M, (1/n)          20.865
 MW, MOL WT        19.607
 (dLV/dLP)t      -1.00096
 (dLV/dLT)p        1.0099
 Cp, KJ/(KG)(K)    1.7413
 GAMMAs            1.3028
 SON VEL,M/SEC      843.8

 MOLE FRACTIONS

 CH2             2.560-13
 CH3             5.3328-8
 CH2OH           5.097-14
 CH3O            1.721-15
 CH4             4.4619-4
 CH3OH           1.984-11
 *CN             2.476-12
 *CO             2.2620-1
 *CO2            1.2604-4
 COOH            2.279-13
 C2H             2.245-15
 C2H2,acetylene  4.8433-7
 C2H2,vinylidene 3.066-13
 CH2CO,ketene    7.9566-9
 O(CH)2O         2.320-16
 C2H3,vinyl      3.486-12
 CH3CN           5.2640-8
 CH3CO,acetyl    2.808-13
 C2H4            1.7339-7
 CH3CHO,ethanal  1.053-11
 CH3COOH         2.549-15
 C2H5            2.046-12
 C2H6            1.3505-9
 C2H5OH          6.204-16
 OCCN            1.061-14
 C2N2            1.405-10
 C2O             6.381-15
 C3H3,2-propynl  2.662-12
 C3H4,allene     1.378-11
 C3H4,propyne    4.120-11
 C3H4,cyclo-     5.710-15
 C3H5,allyl      1.428-13
 C3H6,propylene  8.352-12
 C3H6,cyclo-     1.132-14
 C3H6O,acetone   3.335-16
 C3H8            1.244-14
 C3O2            4.366-13
 C4H2,butadiyne  3.069-13
 C4H6,butadiene  1.653-14
 C4H6,1butyne    4.061-16
 C4H6,2butyne    6.124-16
 C5H6,1,3cyclo-  2.472-16
 C6H6            5.027-15
 *H              1.6886-6
 HCN             1.6210-4
 HCO             1.1226-9
 HCCO            9.912-14
 HNC             1.4599-6
 HNCO            5.5730-8
 *H2             2.8594-1
 HCHO,formaldehy 3.1951-8
 HCOOH           4.537-11
 H2O             3.2722-4
 *N              1.055-15
 NCO             6.711-14
 *NH             9.761-14
 NH2             1.414-10
 NH3             1.0100-5
 *NO             3.158-13
 *N2             4.2647-1
 N2H2            1.212-15
 *O              1.862-16
 *OH             4.103-11
 C(gr)           6.0316-2

  * THERMODYNAMIC PROPERTIES FITTED TO 20000.K









         THERMODYNAMIC EQUILIBRIUM COMBUSTION PROPERTIES AT ASSIGNED

                                   PRESSURES

 CASE =                

             REACTANT                       MOLES         ENERGY      TEMP
                                                         KJ/KG-MOL      K
 FUEL        C2H4                         1.0000000     52579.505    300.000
 OXIDANT     O2                           3.0000000        54.358    300.000
 OXIDANT     N2                          11.2857000        53.881    300.000

 O/F=    3.76709  %FUEL= 20.977158  R,EQ.RATIO= 3.900000  PHI,EQ.RATIO= 3.900000

 THERMODYNAMIC PROPERTIES

 P, BAR            1.0000
 T, K             1365.76
 RHO, KG/CU M    1.8328-1
 H, KJ/KG          394.65
 U, KJ/KG         -150.97
 G, KJ/KG        -14827.0
 S, KJ/(KG)(K)    11.1452

 M, (1/n)          20.812
 MW, MOL WT        19.421
 (dLV/dLP)t      -1.00102
 (dLV/dLT)p        1.0105
 Cp, KJ/(KG)(K)    1.7550
 GAMMAs            1.3011
 SON VEL,M/SEC      842.6

 MOLE FRACTIONS

 CH2             2.252-13
 CH3             5.1777-8
 CH2OH           5.000-14
 CH3O            1.666-15
 CH4             4.7445-4
 CH3OH           2.104-11
 *CN             2.091-12
 *CO             2.2281-1
 *CO2            1.3081-4
 COOH            2.237-13
 C2H             1.834-15
 C2H2,acetylene  4.5161-7
 C2H2,vinylidene 2.676-13
 CH2CO,ketene    7.8145-9
 O(CH)2O         2.297-16
 C2H3,vinyl      3.205-12
 CH3CN           5.2427-8
 CH3CO,acetyl    2.746-13
 C2H4            1.7613-7
 CH3CHO,ethanal  1.102-11
 CH3COOH         2.789-15
 C2H5            2.050-12
 C2H6            1.4707-9
 C2H5OH          6.786-16
 OCCN            9.260-15
 C2N2            1.236-10
 C2O             5.429-15
 C3H3,2-propynl  2.415-12
 C3H4,allene     1.330-11
 C3H4,propyne    3.985-11
 C3H4,cyclo-     5.343-15
 C3H5,allyl      1.404-13
 C3H6,propylene  8.755-12
 C3H6,cyclo-     1.172-14
 C3H6O,acetone   3.627-16
 C3H8            1.391-14
 C3O2            4.060-13
 C4H2,butadiyne  2.637-13
 C4H6,butadiene  1.671-14
 C4H6,1butyne    4.033-16
 C4H6,2butyne    6.135-16
 C5H6,1,3cyclo-  2.484-16
 C6H6            5.150-15
 *H              1.5599-6
 HCN             1.5431-4
 HCO             1.0566-9
 HCCO            8.876-14
 HNC             1.3586-6
 HNCO            5.5320-8
 *H2             2.8905-1
 HCHO,formaldehy 3.2099-8
 HCOOH           4.771-11
 H2O             3.4460-4
 *N              8.776-16
 NCO             6.021-14
 *NH             8.560-14
 NH2             1.332-10
 NH3             1.0472-5
 *NO             2.876-13
 *N2             4.2015-1
 N2H2            1.129-15
 *O              1.605-16
 *OH             3.862-11
 C(gr)           6.6869-2

  * THERMODYNAMIC PROPERTIES FITTED TO 20000.K









         THERMODYNAMIC EQUILIBRIUM COMBUSTION PROPERTIES AT ASSIGNED

                                   PRESSURES

 CASE =                

             REACTANT                       MOLES         ENERGY      TEMP
                                                         KJ/KG-MOL      K
 FUEL        C2H4                         1.0000000     52579.505    300.000
 OXIDANT     O2                           3.0000000        54.358    300.000
 OXIDANT     N2                          11.2857000        53.881    300.000

 O/F=    3.67291  %FUEL= 21.399929  R,EQ.RATIO= 4.000000  PHI,EQ.RATIO= 4.000000

 THERMODYNAMIC PROPERTIES

 P, BAR            1.0000
 T, K             1360.26
 RHO, KG/CU M    1.8356-1
 H, KJ/KG          402.57
 U, KJ/KG         -142.23
 G, KJ/KG        -14779.5
 S, KJ/(KG)(K)    11.1611

 M, (1/n)          20.760
 MW, MOL WT        19.240
 (dLV/dLP)t      -1.00109
 (dLV/dLT)p        1.0112
 Cp, KJ/(KG)(K)    1.7687
 GAMMAs            1.2995
 SON VEL,M/SEC      841.4

 MOLE FRACTIONS

 CH2             1.985-13
 CH3             5.0277-8
 CH2OH           4.903-14
 CH3O            1.613-15
 CH4             5.0369-4
 CH3OH           2.227-11
 *CN             1.772-12
 *CO             2.1952-1
 *CO2            1.3566-4
 COOH            2.197-13
 C2H             1.503-15
 C2H2,acetylene  4.2150-7
 C2H2,vinylidene 2.341-13
 CH2CO,ketene    7.6748-9
 O(CH)2O         2.273-16
 C2H3,vinyl      2.951-12
 CH3CN           5.2196-8
 CH3CO,acetyl    2.684-13
 C2H4            1.7877-7
 CH3CHO,ethanal  1.152-11
 CH3COOH         3.044-15
 C2H5            2.052-12
 C2H6            1.5979-9
 C2H5OH          7.403-16
 OCCN            8.098-15
 C2N2            1.090-10
 C2O             4.631-15
 C3H3,2-propynl  2.194-12
 C3H4,allene     1.283-11
 C3H4,propyne    3.856-11
 C3H4,cyclo-     5.003-15
 C3H5,allyl      1.381-13
 C3H6,propylene  9.164-12
 C3H6,cyclo-     1.212-14
 C3H6O,acetone   3.936-16
 C3H8            1.551-14
 C3O2            3.780-13
 C4H2,butadiyne  2.272-13
 C4H6,butadiene  1.689-14
 C4H6,1butyne    4.004-16
 C4H6,2butyne    6.142-16
 C5H6,1,3cyclo-  2.494-16
 C6H6            5.270-15
 *H              1.4429-6
 HCN             1.4700-4
 HCO             9.953-10
 HCCO            7.962-14
 HNC             1.2658-6
 HNCO            5.4907-8
 *H2             2.9207-1
 HCHO,formaldehy 3.2236-8
 HCOOH           5.010-11
 H2O             3.6246-4
 *N              7.325-16
 NCO             5.412-14
 *NH             7.523-14
 NH2             1.256-10
 NH3             1.0846-5
 *NO             2.623-13
 *N2             4.1402-1
 N2H2            1.051-15
 *O              1.388-16
 *OH             3.639-11
 C(gr)           7.3229-2

  * THERMODYNAMIC PROPERTIES FITTED TO 20000.K



