
 *******************************************************************************

         NASA-GLENN CHEMICAL EQUILIBRIUM PROGRAM CEA2, MAY 21, 2004
                   BY  BONNIE MCBRIDE AND SANFORD GORDON
      REFS: NASA RP-1311, PART I, 1994 AND NASA RP-1311, PART II, 1996

 *******************************************************************************



 problem    phi,eq.ratio=0.5,0.6,0.7,0.8,0.9,1,1.1,1.2,1.3,1.4,1.5,1.6,1.7,1.8,1.
 9,2,
     hp   p,bar=1,  t,k=3800
 react
   fuel=C2H5OH moles=1  t,k=300
   oxid=O2 moles=3  t,k=300
   oxid=N2 moles=11.2857  t,k=300
 output  short   trace=1e-16
 end




         THERMODYNAMIC EQUILIBRIUM COMBUSTION PROPERTIES AT ASSIGNED

                                   PRESSURES

 CASE =                

             REACTANT                       MOLES         ENERGY      TEMP
                                                         KJ/KG-MOL      K
 FUEL        C2H5OH                       1.0000000   -234828.916    300.000
 OXIDANT     O2                           3.0000000        54.358    300.000
 OXIDANT     N2                          11.2857000        53.881    300.000

 O/F=   17.89282  %FUEL=  5.293015  R,EQ.RATIO= 0.538462  PHI,EQ.RATIO= 0.500000

 THERMODYNAMIC PROPERTIES

 P, BAR            1.0000
 T, K             1516.94
 RHO, KG/CU M    2.2572-1
 H, KJ/KG         -268.03
 U, KJ/KG         -711.06
 G, KJ/KG        -13868.5
 S, KJ/(KG)(K)     8.9657

 M, (1/n)          28.469
 (dLV/dLP)t      -1.00001
 (dLV/dLT)p        1.0003
 Cp, KJ/(KG)(K)    1.3471
 GAMMAs            1.2770
 SON VEL,M/SEC      752.2

 MOLE FRACTIONS

 *CO             1.3154-6
 *CO2            6.5418-2
 COOH            8.249-13
 *H              1.8563-8
 HNCO            6.069-16
 HNO             2.235-10
 HNO2            3.5185-8
 HNO3            1.833-11
 HO2             1.2791-7
 *H2             7.4178-7
 HCOOH           6.456-14
 H2O             9.8084-2
 H2O2            7.0794-9
 *N              8.007-14
 *NH             4.167-15
 NH2             2.196-15
 NH3             3.249-14
 *NO             8.7639-4
 NO2             3.0596-6
 NO3             1.300-12
 *N2             7.3786-1
 N2O             5.1872-8
 N2O3            9.209-15
 *O              1.5909-6
 *OH             8.7231-5
 *O2             9.7666-2
 O3              1.100-10

  * THERMODYNAMIC PROPERTIES FITTED TO 20000.K









         THERMODYNAMIC EQUILIBRIUM COMBUSTION PROPERTIES AT ASSIGNED

                                   PRESSURES

 CASE =                

             REACTANT                       MOLES         ENERGY      TEMP
                                                         KJ/KG-MOL      K
 FUEL        C2H5OH                       1.0000000   -234828.916    300.000
 OXIDANT     O2                           3.0000000        54.358    300.000
 OXIDANT     N2                          11.2857000        53.881    300.000

 O/F=   14.91069  %FUEL=  6.285084  R,EQ.RATIO= 0.636364  PHI,EQ.RATIO= 0.600000

 THERMODYNAMIC PROPERTIES

 P, BAR            1.0000
 T, K             1702.14
 RHO, KG/CU M    2.0065-1
 H, KJ/KG         -318.62
 U, KJ/KG         -817.01
 G, KJ/KG        -15924.6
 S, KJ/(KG)(K)     9.1684

 M, (1/n)          28.397
 (dLV/dLP)t      -1.00003
 (dLV/dLT)p        1.0014
 Cp, KJ/(KG)(K)    1.4112
 GAMMAs            1.2627
 SON VEL,M/SEC      793.3

 MOLE FRACTIONS

 *CO             1.9679-5
 *CO2            7.7463-2
 COOH            1.544-11
 *H              4.4162-7
 HCO             6.759-15
 HNCO            2.905-14
 HNO             1.5751-9
 HNO2            4.7932-8
 HNO3            1.418-11
 HO2             3.6526-7
 *H2             8.6056-6
 HCOOH           1.012-12
 H2O             1.1604-1
 H2O2            1.8957-8
 *N              4.948-12
 NCO             5.063-16
 *NH             3.065-13
 NH2             1.235-13
 NH3             7.851-13
 NH2OH           3.082-16
 *NO             1.6969-3
 NO2             3.2165-6
 NO3             1.755-12
 *N2             7.2785-1
 N2O             9.5517-8
 N2O3            1.457-14
 *O              1.2647-5
 *OH             3.5733-4
 *O2             7.6549-2
 O3              2.675-10

  * THERMODYNAMIC PROPERTIES FITTED TO 20000.K









         THERMODYNAMIC EQUILIBRIUM COMBUSTION PROPERTIES AT ASSIGNED

                                   PRESSURES

 CASE =                

             REACTANT                       MOLES         ENERGY      TEMP
                                                         KJ/KG-MOL      K
 FUEL        C2H5OH                       1.0000000   -234828.916    300.000
 OXIDANT     O2                           3.0000000        54.358    300.000
 OXIDANT     N2                          11.2857000        53.881    300.000

 O/F=   12.78059  %FUEL=  7.256584  R,EQ.RATIO= 0.731343  PHI,EQ.RATIO= 0.700000

 THERMODYNAMIC PROPERTIES

 P, BAR            1.0000
 T, K             1872.34
 RHO, KG/CU M    1.8192-1
 H, KJ/KG         -368.16
 U, KJ/KG         -917.86
 G, KJ/KG        -17871.8
 S, KJ/(KG)(K)     9.3486

 M, (1/n)          28.320
 (dLV/dLP)t      -1.00013
 (dLV/dLT)p        1.0050
 Cp, KJ/(KG)(K)    1.4937
 GAMMAs            1.2475
 SON VEL,M/SEC      828.1

 MOLE FRACTIONS

 *CO             1.5890-4
 *CO2            8.9060-2
 COOH            1.445-10
 *H              4.8967-6
 HCN             8.820-16
 HCO             3.735-13
 HNCO            5.838-13
 HNO             6.5999-9
 HNO2            5.5262-8
 HNO3            1.009-11
 HO2             7.2784-7
 *H2             5.7979-5
 HCHO,formaldehy 3.856-15
 HCOOH           8.730-12
 H2O             1.3327-1
 H2O2            3.7582-8
 *N              1.068-10
 NCO             2.018-14
 *NH             7.827-12
 NH2             2.693-12
 NH3             9.517-12
 NH2OH           3.282-15
 *NO             2.5919-3
 NO2             2.9251-6
 NO3             1.809-12
 *N2             7.1791-1
 N2O             1.4129-7
 N2O3            1.691-14
 N3              1.912-16
 *O              5.5532-5
 *OH             9.9403-4
 *O2             5.5889-2
 O3              4.270-10

  * THERMODYNAMIC PROPERTIES FITTED TO 20000.K









         THERMODYNAMIC EQUILIBRIUM COMBUSTION PROPERTIES AT ASSIGNED

                                   PRESSURES

 CASE =                

             REACTANT                       MOLES         ENERGY      TEMP
                                                         KJ/KG-MOL      K
 FUEL        C2H5OH                       1.0000000   -234828.916    300.000
 OXIDANT     O2                           3.0000000        54.358    300.000
 OXIDANT     N2                          11.2857000        53.881    300.000

 O/F=   11.18301  %FUEL=  8.208149  R,EQ.RATIO= 0.823529  PHI,EQ.RATIO= 0.800000

 THERMODYNAMIC PROPERTIES

 P, BAR            1.0000
 T, K             2025.54
 RHO, KG/CU M    1.6763-1
 H, KJ/KG         -416.68
 U, KJ/KG        -1013.24
 G, KJ/KG        -19680.9
 S, KJ/(KG)(K)     9.5106

 M, (1/n)          28.231
 (dLV/dLP)t      -1.00047
 (dLV/dLT)p        1.0156
 Cp, KJ/(KG)(K)    1.6316
 GAMMAs            1.2281
 SON VEL,M/SEC      855.9

 MOLE FRACTIONS

 *CN             1.213-16
 *CO             8.5551-4
 *CO2            9.9745-2
 COOH            8.364-10
 *H              3.2055-5
 HCN             4.253-14
 HCO             9.122-12
 HNC             2.249-15
 HNCO            6.643-12
 HNO             1.8737-8
 HNO2            5.3434-8
 HNO3            6.148-12
 HO2             1.0627-6
 *H2             2.7450-4
 HCHO,formaldehy 9.694-14
 HCOOH           5.052-11
 H2O             1.4958-1
 H2O2            5.7851-8
 *N              1.0916-9
 NCO             3.646-13
 *NH             9.587-11
 NH2             3.096-11
 NH3             7.429-11
 NH2OH           2.117-14
 *NO             3.2261-3
 NO2             2.2305-6
 NO3             1.378-12
 *N2             7.0798-1
 N2H2            6.757-16
 N2O             1.7219-7
 N2O3            1.408-14
 N3              1.606-15
 N3H             2.114-16
 *O              1.5418-4
 *OH             2.0609-3
 *O2             3.6090-2
 O3              4.539-10

  * THERMODYNAMIC PROPERTIES FITTED TO 20000.K









         THERMODYNAMIC EQUILIBRIUM COMBUSTION PROPERTIES AT ASSIGNED

                                   PRESSURES

 CASE =                

             REACTANT                       MOLES         ENERGY      TEMP
                                                         KJ/KG-MOL      K
 FUEL        C2H5OH                       1.0000000   -234828.916    300.000
 OXIDANT     O2                           3.0000000        54.358    300.000
 OXIDANT     N2                          11.2857000        53.881    300.000

 O/F=    9.94046  %FUEL=  9.140386  R,EQ.RATIO= 0.913043  PHI,EQ.RATIO= 0.900000

 THERMODYNAMIC PROPERTIES

 P, BAR            1.0000
 T, K             2153.92
 RHO, KG/CU M    1.5694-1
 H, KJ/KG         -464.22
 U, KJ/KG        -1101.39
 G, KJ/KG        -21265.5
 S, KJ/(KG)(K)     9.6574

 M, (1/n)          28.107
 (dLV/dLP)t      -1.00141
 (dLV/dLT)p        1.0436
 Cp, KJ/(KG)(K)    1.9071
 GAMMAs            1.2013
 SON VEL,M/SEC      874.9

 MOLE FRACTIONS

 *CN             4.823-15
 *CO             3.4692-3
 *CO2            1.0806-1
 COOH            3.2984-9
 *H              1.3884-4
 HCN             1.121-12
 HCO             1.225-10
 HNC             7.389-14
 HNCO            5.115-11
 HNO             3.6921-8
 HNO2            4.0124-8
 HNO3            2.763-12
 HO2             1.0775-6
 *H2             1.0313-3
 HCHO,formaldehy 1.466-12
 HCOOH           2.199-10
 H2O             1.6459-1
 H2O2            6.7107-8
 *N              5.9285-9
 NCO             3.574-12
 *NH             6.529-10
 NH2             2.216-10
 NH3             4.416-10
 NH2OH           9.197-14
 *NO             3.1565-3
 NO2             1.2789-6
 NO3             6.616-13
 *N2             6.9771-1
 N2H2            5.345-15
 N2O             1.6609-7
 N2O3            7.204-15
 N3              7.542-15
 N3H             1.154-15
 *O              2.7151-4
 *OH             3.2227-3
 *O2             1.8352-2
 O3              2.790-10

  * THERMODYNAMIC PROPERTIES FITTED TO 20000.K









         THERMODYNAMIC EQUILIBRIUM COMBUSTION PROPERTIES AT ASSIGNED

                                   PRESSURES

 CASE =                

             REACTANT                       MOLES         ENERGY      TEMP
                                                         KJ/KG-MOL      K
 FUEL        C2H5OH                       1.0000000   -234828.916    300.000
 OXIDANT     O2                           3.0000000        54.358    300.000
 OXIDANT     N2                          11.2857000        53.881    300.000

 O/F=    8.94641  %FUEL= 10.053877  R,EQ.RATIO= 1.000000  PHI,EQ.RATIO= 1.000000

 THERMODYNAMIC PROPERTIES

 P, BAR            1.0000
 T, K             2235.30
 RHO, KG/CU M    1.5008-1
 H, KJ/KG         -510.80
 U, KJ/KG        -1177.13
 G, KJ/KG        -22395.2
 S, KJ/(KG)(K)     9.7904

 M, (1/n)          27.892
 (dLV/dLP)t      -1.00285
 (dLV/dLT)p        1.0853
 Cp, KJ/(KG)(K)    2.2854
 GAMMAs            1.1775
 SON VEL,M/SEC      885.8

 MOLE FRACTIONS

 *CN             8.823-14
 *CO             1.1386-2
 *CO2            1.1036-1
 COOH            8.7738-9
 *H              3.9990-4
 HCN             2.010-11
 HCO             9.923-10
 HNC             1.503-12
 HNCO            2.999-10
 HNO             4.4732-8
 HNO2            1.8514-8
 HNO3            6.301-13
 HO2             5.9287-7
 *H2             3.3915-3
 HCHO,formaldehy 1.577-11
 HCOOH           7.689-10
 H2O             1.7731-1
 H2O2            4.9472-8
 *N              1.5614-8
 NCO             1.942-11
 *NH             2.4268-9
 NH2             1.0514-9
 NH3             2.3356-9
 NH2OH           2.700-13
 *NO             2.0590-3
 NO2             4.0736-7
 NO3             1.263-13
 *N2             6.8594-1
 N2H2            2.682-14
 N2O             1.0714-7
 N2O3            1.422-15
 N3              1.812-14
 N3H             3.749-15
 *O              2.4941-4
 *OH             3.4264-3
 *O2             5.4768-3
 O3              6.179-11

  * THERMODYNAMIC PROPERTIES FITTED TO 20000.K









         THERMODYNAMIC EQUILIBRIUM COMBUSTION PROPERTIES AT ASSIGNED

                                   PRESSURES

 CASE =                

             REACTANT                       MOLES         ENERGY      TEMP
                                                         KJ/KG-MOL      K
 FUEL        C2H5OH                       1.0000000   -234828.916    300.000
 OXIDANT     O2                           3.0000000        54.358    300.000
 OXIDANT     N2                          11.2857000        53.881    300.000

 O/F=    8.13310  %FUEL= 10.949183  R,EQ.RATIO= 1.084507  PHI,EQ.RATIO= 1.100000

 THERMODYNAMIC PROPERTIES

 P, BAR            1.0000
 T, K             2230.48
 RHO, KG/CU M    1.4831-1
 H, KJ/KG         -556.46
 U, KJ/KG        -1230.73
 G, KJ/KG        -22659.9
 S, KJ/(KG)(K)     9.9097

 M, (1/n)          27.504
 (dLV/dLP)t      -1.00149
 (dLV/dLT)p        1.0452
 Cp, KJ/(KG)(K)    1.9498
 GAMMAs            1.2018
 SON VEL,M/SEC      900.2

 MOLE FRACTIONS

 *C              2.041-16
 CH2             2.743-16
 CH3             2.403-15
 CH2OH           6.951-16
 CH4             1.877-15
 *CN             5.850-13
 *CO             2.8797-2
 *CO2            1.0194-1
 COOH            1.3439-8
 *H              6.5929-4
 HCN             2.337-10
 HCO             4.1745-9
 HNC             1.734-11
 HNCO            1.2698-9
 HNO             2.6158-8
 HNO2            3.9089-9
 HNO3            4.732-14
 HO2             1.2542-7
 *H2             9.7190-3
 HCHO,formaldehy 1.143-10
 HCOOH           2.0306-9
 H2O             1.8504-1
 H2O2            1.8026-8
 *N              1.4596-8
 NCO             4.715-11
 *NH             3.8960-9
 NH2             2.9153-9
 NH3             1.1272-8
 NH2OH           4.604-13
 *NO             7.1227-4
 NO2             5.0158-8
 NO3             5.473-15
 *N2             6.7032-1
 N2H2            7.323-14
 N2O             3.6643-8
 N3              1.663-14
 N3H             5.921-15
 *O              8.5627-5
 *OH             2.0432-3
 *O2             6.8505-4
 O3              2.686-12

  * THERMODYNAMIC PROPERTIES FITTED TO 20000.K









         THERMODYNAMIC EQUILIBRIUM COMBUSTION PROPERTIES AT ASSIGNED

                                   PRESSURES

 CASE =                

             REACTANT                       MOLES         ENERGY      TEMP
                                                         KJ/KG-MOL      K
 FUEL        C2H5OH                       1.0000000   -234828.916    300.000
 OXIDANT     O2                           3.0000000        54.358    300.000
 OXIDANT     N2                          11.2857000        53.881    300.000

 O/F=    7.45534  %FUEL= 11.826841  R,EQ.RATIO= 1.166667  PHI,EQ.RATIO= 1.200000

 THERMODYNAMIC PROPERTIES

 P, BAR            1.0000
 T, K             2167.94
 RHO, KG/CU M    1.4987-1
 H, KJ/KG         -601.21
 U, KJ/KG        -1268.45
 G, KJ/KG        -22317.2
 S, KJ/(KG)(K)    10.0169

 M, (1/n)          27.015
 (dLV/dLP)t      -1.00054
 (dLV/dLT)p        1.0162
 Cp, KJ/(KG)(K)    1.6983
 GAMMAs            1.2294
 SON VEL,M/SEC      905.7

 MOLE FRACTIONS

 *C              2.911-16
 *CH             1.246-16
 CH2             1.370-15
 CH3             2.538-14
 CH2OH           3.126-15
 CH3O            3.685-16
 CH4             4.017-14
 CH3OH           7.023-16
 *CN             1.281-12
 *CO             4.9666-2
 *CO2            8.9040-2
 COOH            1.2822-8
 CH2CO,ketene    2.592-16
 C2O             2.235-16
 *H              6.6679-4
 HCN             1.1808-9
 HCO             8.1954-9
 HNC             7.958-11
 HNCO            3.1278-9
 HNO             1.0425-8
 HNO2            6.760-10
 HNO3            2.908-15
 HO2             1.9344-8
 *H2             2.0181-2
 HCHO,formaldehy 4.105-10
 HCOOH           3.5713-9
 H2O             1.8709-1
 H2O2            5.0503-9
 *N              6.8179-9
 NCO             5.419-11
 *NH             3.1768-9
 NH2             4.4818-9
 NH3             3.6235-8
 NH2OH           4.813-13
 *NO             2.0064-4
 NO2             5.0689-9
 NO3             1.696-16
 *N2             6.5215-1
 N2H2            1.057-13
 N2O             1.0201-8
 N3              8.000-15
 N3H             5.139-15
 *O              1.8942-5
 *OH             9.1834-4
 *O2             7.4258-5
 O3              7.582-14

  * THERMODYNAMIC PROPERTIES FITTED TO 20000.K









         THERMODYNAMIC EQUILIBRIUM COMBUSTION PROPERTIES AT ASSIGNED

                                   PRESSURES

 CASE =                

             REACTANT                       MOLES         ENERGY      TEMP
                                                         KJ/KG-MOL      K
 FUEL        C2H5OH                       1.0000000   -234828.916    300.000
 OXIDANT     O2                           3.0000000        54.358    300.000
 OXIDANT     N2                          11.2857000        53.881    300.000

 O/F=    6.88186  %FUEL= 12.687368  R,EQ.RATIO= 1.246575  PHI,EQ.RATIO= 1.300000

 THERMODYNAMIC PROPERTIES

 P, BAR            1.0000
 T, K             2095.45
 RHO, KG/CU M    1.5225-1
 H, KJ/KG         -645.09
 U, KJ/KG        -1301.90
 G, KJ/KG        -21839.7
 S, KJ/(KG)(K)    10.1145

 M, (1/n)          26.526
 (dLV/dLP)t      -1.00027
 (dLV/dLT)p        1.0081
 Cp, KJ/(KG)(K)    1.6342
 GAMMAs            1.2417
 SON VEL,M/SEC      903.1

 MOLE FRACTIONS

 *C              2.144-16
 *CH             1.490-16
 CH2             3.145-15
 CH3             1.196-13
 CH2OH           7.573-15
 CH3O            8.237-16
 CH4             3.690-13
 CH3OH           3.117-15
 *CN             1.605-12
 *CO             6.8171-2
 *CO2            7.7936-2
 COOH            1.0196-8
 CH2CO,ketene    1.509-15
 C2O             4.098-16
 *H              5.5114-4
 HCN             3.3848-9
 HCO             1.0756-8
 HNC             2.025-10
 HNCO            5.4502-9
 HNO             4.0441-9
 HNO2            1.380-10
 HNO3            2.446-16
 HO2             3.4180-9
 *H2             3.2997-2
 HCHO,formaldehy 9.245-10
 HCOOH           4.9252-9
 H2O             1.8568-1
 H2O2            1.5186-9
 *N              2.6745-9
 NCO             4.524-11
 *NH             2.0184-9
 NH2             5.0737-9
 NH3             8.3046-8
 NH2OH           4.075-13
 *NO             6.2191-5
 NO2             6.545-10
 *N2             6.3417-1
 N2H2            1.112-13
 N2O             3.1282-9
 N3              3.276-15
 N3H             3.550-15
 *O              4.3455-6
 *OH             4.1146-4
 *O2             1.0421-5
 O3              2.991-15

  * THERMODYNAMIC PROPERTIES FITTED TO 20000.K









         THERMODYNAMIC EQUILIBRIUM COMBUSTION PROPERTIES AT ASSIGNED

                                   PRESSURES

 CASE =                

             REACTANT                       MOLES         ENERGY      TEMP
                                                         KJ/KG-MOL      K
 FUEL        C2H5OH                       1.0000000   -234828.916    300.000
 OXIDANT     O2                           3.0000000        54.358    300.000
 OXIDANT     N2                          11.2857000        53.881    300.000

 O/F=    6.39029  %FUEL= 13.531261  R,EQ.RATIO= 1.324324  PHI,EQ.RATIO= 1.400000

 THERMODYNAMIC PROPERTIES

 P, BAR            1.0000
 T, K             2023.53
 RHO, KG/CU M    1.5488-1
 H, KJ/KG         -688.12
 U, KJ/KG        -1333.78
 G, KJ/KG        -21337.6
 S, KJ/(KG)(K)    10.2047

 M, (1/n)          26.058
 (dLV/dLP)t      -1.00016
 (dLV/dLT)p        1.0047
 Cp, KJ/(KG)(K)    1.6155
 GAMMAs            1.2488
 SON VEL,M/SEC      897.9

 MOLE FRACTIONS

 *C              1.170-16
 *CH             1.254-16
 CH2             4.877-15
 CH3             3.672-13
 CH2OH           1.335-14
 CH3O            1.334-15
 CH4             2.127-12
 CH3OH           9.644-15
 *CN             1.542-12
 *CO             8.3857-2
 *CO2            6.9220-2
 COOH            7.5368-9
 C2H2,acetylene  2.310-16
 CH2CO,ketene    5.538-15
 OCCN            1.025-16
 C2O             5.183-16
 *H              4.1502-4
 HCN             7.2260-9
 HCO             1.1628-8
 HCCO            1.163-16
 HNC             3.807-10
 HNCO            7.9779-9
 HNO             1.5889-9
 HNO2            3.189-11
 HO2             6.761-10
 *H2             4.7263-2
 HCHO,formaldehy 1.6363-9
 HCOOH           6.0297-9
 H2O             1.8205-1
 H2O2            4.872-10
 *N              9.905-10
 NCO             3.287-11
 *NH             1.1498-9
 NH2             4.9228-9
 NH3             1.5720-7
 NH2OH           3.119-13
 *NO             2.0862-5
 NO2             1.008-10
 *N2             6.1698-1
 N2H2            1.001-13
 N2O             1.0396-9
 N3              1.273-15
 N3H             2.217-15
 *O              1.0578-6
 *OH             1.8795-4
 *O2             1.7506-6
 O3              1.520-16

  * THERMODYNAMIC PROPERTIES FITTED TO 20000.K









         THERMODYNAMIC EQUILIBRIUM COMBUSTION PROPERTIES AT ASSIGNED

                                   PRESSURES

 CASE =                

             REACTANT                       MOLES         ENERGY      TEMP
                                                         KJ/KG-MOL      K
 FUEL        C2H5OH                       1.0000000   -234828.916    300.000
 OXIDANT     O2                           3.0000000        54.358    300.000
 OXIDANT     N2                          11.2857000        53.881    300.000

 O/F=    5.96427  %FUEL= 14.358998  R,EQ.RATIO= 1.400000  PHI,EQ.RATIO= 1.500000

 THERMODYNAMIC PROPERTIES

 P, BAR            1.0000
 T, K             1953.98
 RHO, KG/CU M    1.5765-1
 H, KJ/KG         -730.33
 U, KJ/KG        -1364.64
 G, KJ/KG        -20833.7
 S, KJ/(KG)(K)    10.2884

 M, (1/n)          25.613
 (dLV/dLP)t      -1.00010
 (dLV/dLT)p        1.0029
 Cp, KJ/(KG)(K)    1.6113
 GAMMAs            1.2540
 SON VEL,M/SEC      891.9

 MOLE FRACTIONS

 CH2             5.992-15
 CH3             8.741-13
 CH2OH           1.948-14
 CH3O            1.786-15
 CH4             9.295-12
 CH3OH           2.409-14
 *CN             1.269-12
 *CO             9.7183-2
 *CO2            6.2482-2
 COOH            5.3629-9
 C2H2,acetylene  8.294-16
 CH2CO,ketene    1.556-14
 OCCN            1.228-16
 C2O             5.305-16
 *H              2.9506-4
 HCN             1.2987-8
 HCO             1.1242-8
 HCCO            1.752-16
 HNC             5.999-10
 HNCO            1.0577-8
 HNO             6.286-10
 HNO2            7.934-12
 HO2             1.429-10
 *H2             6.2386-2
 HCHO,formaldehy 2.5170-9
 HCOOH           6.9114-9
 H2O             1.7692-1
 H2O2            1.622-10
 *N              3.540-10
 NCO             2.211-11
 *NH             6.123-10
 NH2             4.3431-9
 NH3             2.6455-7
 NH2OH           2.241-13
 *NO             7.3378-6
 NO2             1.726-11
 *N2             6.0064-1
 N2H2            8.196-14
 N2O             3.628-10
 N3              4.794-16
 N3H             1.302-15
 *O              2.6665-7
 *OH             8.6747-5
 *O2             3.2763-7

  * THERMODYNAMIC PROPERTIES FITTED TO 20000.K









         THERMODYNAMIC EQUILIBRIUM COMBUSTION PROPERTIES AT ASSIGNED

                                   PRESSURES

 CASE =                

             REACTANT                       MOLES         ENERGY      TEMP
                                                         KJ/KG-MOL      K
 FUEL        C2H5OH                       1.0000000   -234828.916    300.000
 OXIDANT     O2                           3.0000000        54.358    300.000
 OXIDANT     N2                          11.2857000        53.881    300.000

 O/F=    5.59151  %FUEL= 15.171037  R,EQ.RATIO= 1.473684  PHI,EQ.RATIO= 1.600000

 THERMODYNAMIC PROPERTIES

 P, BAR            1.0000
 T, K             1887.07
 RHO, KG/CU M    1.6054-1
 H, KJ/KG         -771.74
 U, KJ/KG        -1394.62
 G, KJ/KG        -20334.2
 S, KJ/(KG)(K)    10.3666

 M, (1/n)          25.190
 (dLV/dLP)t      -1.00006
 (dLV/dLT)p        1.0018
 Cp, KJ/(KG)(K)    1.6135
 GAMMAs            1.2583
 SON VEL,M/SEC      885.3

 MOLE FRACTIONS

 CH2             6.298-15
 CH3             1.761-12
 CH2OH           2.513-14
 CH3O            2.108-15
 CH4             3.398-11
 CH3OH           5.238-14
 *CN             9.413-13
 *CO             1.0864-1
 *CO2            5.7269-2
 COOH            3.7253-9
 C2H2,acetylene  2.390-15
 CH2CO,ketene    3.692-14
 OCCN            1.290-16
 C2O             4.732-16
 *H              2.0112-4
 HCN             2.0890-8
 HCO             1.0099-8
 HCCO            2.254-16
 HNC             8.422-10
 HNCO            1.3179-8
 HNO             2.485-10
 HNO2            2.060-12
 HO2             3.134-11
 *H2             7.7929-2
 HCHO,formaldehy 3.5375-9
 HCOOH           7.6117-9
 H2O             1.7081-1
 H2O2            5.505-11
 *N              1.226-10
 NCO             1.412-11
 *NH             3.099-10
 NH2             3.5837-9
 NH3             4.1167-7
 NH2OH           1.540-13
 *NO             2.6497-6
 NO2             3.145-12
 *N2             5.8511-1
 N2H2            6.277-14
 N2O             1.302-10
 N3              1.756-16
 N3H             7.311-16
 *O              6.8259-8
 *OH             4.0117-5
 *O2             6.5379-8

  * THERMODYNAMIC PROPERTIES FITTED TO 20000.K









         THERMODYNAMIC EQUILIBRIUM COMBUSTION PROPERTIES AT ASSIGNED

                                   PRESSURES

 CASE =                

             REACTANT                       MOLES         ENERGY      TEMP
                                                         KJ/KG-MOL      K
 FUEL        C2H5OH                       1.0000000   -234828.916    300.000
 OXIDANT     O2                           3.0000000        54.358    300.000
 OXIDANT     N2                          11.2857000        53.881    300.000

 O/F=    5.26260  %FUEL= 15.967821  R,EQ.RATIO= 1.545455  PHI,EQ.RATIO= 1.700000

 THERMODYNAMIC PROPERTIES

 P, BAR            1.0000
 T, K             1822.76
 RHO, KG/CU M    1.6355-1
 H, KJ/KG         -812.37
 U, KJ/KG        -1423.80
 G, KJ/KG        -19841.3
 S, KJ/(KG)(K)    10.4396

 M, (1/n)          24.787
 (dLV/dLP)t      -1.00004
 (dLV/dLT)p        1.0012
 Cp, KJ/(KG)(K)    1.6188
 GAMMAs            1.2621
 SON VEL,M/SEC      878.5

 MOLE FRACTIONS

 CH2             5.909-15
 CH3             3.156-12
 CH2OH           2.968-14
 CH3O            2.277-15
 CH4             1.102-10
 CH3OH           1.037-13
 *CN             6.461-13
 *CO             1.1862-1
 *CO2            5.3213-2
 COOH            2.5420-9
 C2H2,acetylene  5.921-15
 CH2CO,ketene    7.811-14
 OCCN            1.234-16
 C2O             3.824-16
 *H              1.3248-4
 HCN             3.1127-8
 HCO             8.6038-9
 HCCO            2.597-16
 HNC             1.0906-9
 HNCO            1.5748-8
 HNO             9.754-11
 HNO2            5.468-13
 HO2             6.979-12
 *H2             9.3586-2
 HCHO,formaldehy 4.6728-9
 HCOOH           8.1693-9
 H2O             1.6408-1
 H2O2            1.879-11
 *N              4.119-11
 NCO             8.675-12
 *NH             1.502-10
 NH2             2.8097-9
 NH3             6.0649-7
 NH2OH           1.020-13
 *NO             9.6851-7
 NO2             5.930-13
 *N2             5.7035-1
 N2H2            4.570-14
 N2O             4.735-11
 N3H             3.953-16
 *O              1.7497-8
 *OH             1.8473-5
 *O2             1.3523-8

  * THERMODYNAMIC PROPERTIES FITTED TO 20000.K









         THERMODYNAMIC EQUILIBRIUM COMBUSTION PROPERTIES AT ASSIGNED

                                   PRESSURES

 CASE =                

             REACTANT                       MOLES         ENERGY      TEMP
                                                         KJ/KG-MOL      K
 FUEL        C2H5OH                       1.0000000   -234828.916    300.000
 OXIDANT     O2                           3.0000000        54.358    300.000
 OXIDANT     N2                          11.2857000        53.881    300.000

 O/F=    4.97023  %FUEL= 16.749777  R,EQ.RATIO= 1.615385  PHI,EQ.RATIO= 1.800000

 THERMODYNAMIC PROPERTIES

 P, BAR            1.0000
 T, K             1760.90
 RHO, KG/CU M    1.6668-1
 H, KJ/KG         -852.24
 U, KJ/KG        -1452.19
 G, KJ/KG        -19355.8
 S, KJ/(KG)(K)    10.5080

 M, (1/n)          24.404
 (dLV/dLP)t      -1.00002
 (dLV/dLT)p        1.0007
 Cp, KJ/(KG)(K)    1.6259
 GAMMAs            1.2656
 SON VEL,M/SEC      871.4

 MOLE FRACTIONS

 CH2             5.078-15
 CH3             5.195-12
 CH2OH           3.283-14
 CH3O            2.298-15
 CH4             3.288-10
 CH3OH           1.919-13
 *CN             4.168-13
 *CO             1.2742-1
 *CO2            5.0036-2
 COOH            1.7088-9
 C2H2,acetylene  1.317-14
 CH2CO,ketene    1.525-13
 OCCN            1.101-16
 C2O             2.866-16
 *H              8.4715-5
 HCN             4.3897-8
 HCO             7.0346-9
 HCCO            2.756-16
 HNC             1.3309-9
 HNCO            1.8273-8
 HNO             3.782-11
 HNO2            1.463-13
 HO2             1.556-12
 *H2             1.0915-1
 HCHO,formaldehy 5.9034-9
 HCOOH           8.6167-9
 H2O             1.5699-1
 H2O2            6.396-12
 *N              1.339-11
 NCO             5.159-12
 *NH             7.003-11
 NH2             2.1133-9
 NH3             8.5897-7
 NH2OH           6.558-14
 *NO             3.5477-7
 NO2             1.135-13
 *N2             5.5631-1
 N2H2            3.192-14
 N2O             1.728-11
 N3H             2.067-16
 *O              4.4440-9
 *OH             8.4298-6
 *O2             2.8432-9

  * THERMODYNAMIC PROPERTIES FITTED TO 20000.K









         THERMODYNAMIC EQUILIBRIUM COMBUSTION PROPERTIES AT ASSIGNED

                                   PRESSURES

 CASE =                

             REACTANT                       MOLES         ENERGY      TEMP
                                                         KJ/KG-MOL      K
 FUEL        C2H5OH                       1.0000000   -234828.916    300.000
 OXIDANT     O2                           3.0000000        54.358    300.000
 OXIDANT     N2                          11.2857000        53.881    300.000

 O/F=    4.70864  %FUEL= 17.517314  R,EQ.RATIO= 1.683544  PHI,EQ.RATIO= 1.900000

 THERMODYNAMIC PROPERTIES

 P, BAR            1.0000
 T, K             1701.35
 RHO, KG/CU M    1.6993-1
 H, KJ/KG         -891.38
 U, KJ/KG        -1479.84
 G, KJ/KG        -18878.1
 S, KJ/(KG)(K)    10.5720

 M, (1/n)          24.039
 (dLV/dLP)t      -1.00002
 (dLV/dLT)p        1.0005
 Cp, KJ/(KG)(K)    1.6341
 GAMMAs            1.2688
 SON VEL,M/SEC      864.1

 MOLE FRACTIONS

 CH2             4.063-15
 CH3             8.021-12
 CH2OH           3.450-14
 CH3O            2.200-15
 CH4             9.261-10
 CH3OH           3.388-13
 *CN             2.551-13
 *CO             1.3528-1
 *CO2            4.7537-2
 COOH            1.1330-9
 C2H2,acetylene  2.703-14
 CH2CO,ketene    2.808-13
 CH3CN           1.183-16
 C2H4            1.645-16
 C2N2            1.062-16
 C2O             2.020-16
 *H              5.2724-5
 HCN             5.9424-8
 HCO             5.5606-9
 HCCO            2.744-16
 HNC             1.5517-9
 HNCO            2.0751-8
 HNO             1.443-11
 HNO2            3.906-14
 HO2             3.437-13
 *H2             1.2448-1
 HCHO,formaldehy 7.2143-9
 HCOOH           8.9793-9
 H2O             1.4970-1
 H2O2            2.156-12
 *N              4.207-12
 NCO             2.982-12
 *NH             3.147-11
 NH2             1.5342-9
 NH3             1.1819-6
 NH2OH           4.104-14
 *NO             1.2926-7
 NO2             2.171-14
 *N2             5.4294-1
 N2H2            2.152-14
 N2O             6.285-12
 N3H             1.048-16
 *O              1.1095-9
 *OH             3.7974-6
 *O2             5.990-10

  * THERMODYNAMIC PROPERTIES FITTED TO 20000.K









         THERMODYNAMIC EQUILIBRIUM COMBUSTION PROPERTIES AT ASSIGNED

                                   PRESSURES

 CASE =                

             REACTANT                       MOLES         ENERGY      TEMP
                                                         KJ/KG-MOL      K
 FUEL        C2H5OH                       1.0000000   -234828.916    300.000
 OXIDANT     O2                           3.0000000        54.358    300.000
 OXIDANT     N2                          11.2857000        53.881    300.000

 O/F=    4.47321  %FUEL= 18.270828  R,EQ.RATIO= 1.750000  PHI,EQ.RATIO= 2.000000

 THERMODYNAMIC PROPERTIES

 P, BAR            1.0000
 T, K             1643.96
 RHO, KG/CU M    1.7332-1
 H, KJ/KG         -929.81
 U, KJ/KG        -1506.77
 G, KJ/KG        -18408.4
 S, KJ/(KG)(K)    10.6320

 M, (1/n)          23.691
 (dLV/dLP)t      -1.00001
 (dLV/dLT)p        1.0003
 Cp, KJ/(KG)(K)    1.6430
 GAMMAs            1.2718
 SON VEL,M/SEC      856.6

 MOLE FRACTIONS

 CH2             3.062-15
 CH3             1.179-11
 CH2OH           3.479-14
 CH3O            2.018-15
 CH4             2.5068-9
 CH3OH           5.774-13
 *CN             1.491-13
 *CO             1.4235-1
 *CO2            4.5571-2
 COOH            7.412-10
 C2H2,acetylene  5.228-14
 CH2CO,ketene    4.953-13
 CH3CN           3.618-16
 C2H4            5.652-16
 C2N2            1.430-16
 C2O             1.351-16
 C3O2            1.123-16
 *H              3.1985-5
 HCN             7.7973-8
 HCO             4.2696-9
 HCCO            2.592-16
 HNC             1.7450-9
 HNCO            2.3190-8
 HNO             5.395-12
 HNO2            1.032-14
 HO2             7.453-14
 *H2             1.3951-1
 HCHO,formaldehy 8.5950-9
 HCOOH           9.2769-9
 H2O             1.4234-1
 H2O2            7.157-13
 *N              1.275-12
 NCO             1.677-12
 *NH             1.364-11
 NH2             1.0795-9
 NH3             1.5917-6
 NH2OH           2.505-14
 *NO             4.6572-8
 NO2             4.110-15
 *N2             5.3019-1
 N2H2            1.406-14
 N2O             2.263-12
 *O              2.705-10
 *OH             1.6833-6
 *O2             1.251-10

  * THERMODYNAMIC PROPERTIES FITTED TO 20000.K



