
 *******************************************************************************

         NASA-GLENN CHEMICAL EQUILIBRIUM PROGRAM CEA2, MAY 21, 2004
                   BY  BONNIE MCBRIDE AND SANFORD GORDON
      REFS: NASA RP-1311, PART I, 1994 AND NASA RP-1311, PART II, 1996

 *******************************************************************************



 problem    phi,eq.ratio=0.5,0.6,0.7,0.8,0.9,1,1.1,1.2,1.3,1.4,1.5,1.6,1.7,1.8,1.
 9,2,
       hp   p,bar=1,  t,k=3800
 react
   fuel=C2H5OH moles=1  t,k=300
   oxid=O2 moles=3  t,k=300
 output  short   trace=1e-16
 end




         THERMODYNAMIC EQUILIBRIUM COMBUSTION PROPERTIES AT ASSIGNED

                                   PRESSURES

 CASE =                

             REACTANT                       MOLES         ENERGY      TEMP
                                                         KJ/KG-MOL      K
 FUEL        C2H5OH                       1.0000000   -234828.916    300.000
 OXIDANT     O2                           3.0000000        54.358    300.000

 O/F=    4.16756  %FUEL= 19.351508  R,EQ.RATIO= 0.538462  PHI,EQ.RATIO= 0.500000

 THERMODYNAMIC PROPERTIES

 P, BAR            1.0000
 T, K             2829.88
 RHO, KG/CU M    1.1680-1
 H, KJ/KG         -985.05
 U, KJ/KG        -1841.19
 G, KJ/KG        -31580.6
 S, KJ/(KG)(K)    10.8116

 M, (1/n)          27.483
 (dLV/dLP)t      -1.03230
 (dLV/dLT)p        1.7319
 Cp, KJ/(KG)(K)    6.7821
 GAMMAs            1.1130
 SON VEL,M/SEC      976.1

 MOLE FRACTIONS

 *C              2.352-13
 *CH             1.563-14
 CH2             8.452-15
 CH3             4.992-15
 CH2OH           4.879-15
 CH3O            1.027-15
 CH4             3.742-16
 *CO             5.2218-2
 *CO2            1.7867-1
 COOH            2.0118-7
 C2O             3.478-15
 *H              1.0007-2
 HCO             4.7967-8
 HO2             7.7554-5
 *H2             1.2109-2
 HCHO,formaldehy 2.588-10
 HCOOH           5.6725-9
 H2O             2.9135-1
 H2O2            2.2760-6
 *O              3.5764-2
 *OH             7.5664-2
 *O2             3.4414-1
 O3              1.8139-7

  * THERMODYNAMIC PROPERTIES FITTED TO 20000.K









         THERMODYNAMIC EQUILIBRIUM COMBUSTION PROPERTIES AT ASSIGNED

                                   PRESSURES

 CASE =                

             REACTANT                       MOLES         ENERGY      TEMP
                                                         KJ/KG-MOL      K
 FUEL        C2H5OH                       1.0000000   -234828.916    300.000
 OXIDANT     O2                           3.0000000        54.358    300.000

 O/F=    3.47296  %FUEL= 22.356544  R,EQ.RATIO= 0.636364  PHI,EQ.RATIO= 0.600000

 THERMODYNAMIC PROPERTIES

 P, BAR            1.0000
 T, K             2894.87
 RHO, KG/CU M    1.0990-1
 H, KJ/KG        -1138.28
 U, KJ/KG        -2048.19
 G, KJ/KG        -33641.9
 S, KJ/(KG)(K)    11.2280

 M, (1/n)          26.453
 (dLV/dLP)t      -1.04215
 (dLV/dLT)p        1.9276
 Cp, KJ/(KG)(K)    8.2670
 GAMMAs            1.1100
 SON VEL,M/SEC     1005.0

 MOLE FRACTIONS

 *C              8.799-13
 *CH             6.496-14
 CH2             3.583-14
 CH3             2.094-14
 CH2OH           1.538-14
 CH3O            3.390-15
 CH4             1.607-15
 CH3OH           2.538-16
 *CO             7.7288-2
 *CO2            1.7946-1
 COOH            2.9940-7
 CH2CO,ketene    1.279-16
 C2O             1.438-14
 *H              1.5571-2
 HCO             1.0265-7
 HCCO            2.510-16
 HO2             7.5887-5
 *H2             1.8921-2
 HCHO,formaldehy 5.998-10
 HCOOH           9.1032-9
 H2O             3.1534-1
 H2O2            2.4158-6
 *O              4.0243-2
 *OH             8.6053-2
 *O2             2.6705-1
 O3              1.4525-7

  * THERMODYNAMIC PROPERTIES FITTED TO 20000.K









         THERMODYNAMIC EQUILIBRIUM COMBUSTION PROPERTIES AT ASSIGNED

                                   PRESSURES

 CASE =                

             REACTANT                       MOLES         ENERGY      TEMP
                                                         KJ/KG-MOL      K
 FUEL        C2H5OH                       1.0000000   -234828.916    300.000
 OXIDANT     O2                           3.0000000        54.358    300.000

 O/F=    2.97683  %FUEL= 25.145684  R,EQ.RATIO= 0.731343  PHI,EQ.RATIO= 0.700000

 THERMODYNAMIC PROPERTIES

 P, BAR            1.0000
 T, K             2938.28
 RHO, KG/CU M    1.0450-1
 H, KJ/KG        -1280.50
 U, KJ/KG        -2237.43
 G, KJ/KG        -35375.3
 S, KJ/(KG)(K)    11.6037

 M, (1/n)          25.530
 (dLV/dLP)t      -1.05011
 (dLV/dLT)p        2.0806
 Cp, KJ/(KG)(K)    9.5183
 GAMMAs            1.1087
 SON VEL,M/SEC     1030.0

 MOLE FRACTIONS

 *C              2.224-12
 *CH             1.809-13
 CH2             1.041-13
 CH3             6.222-14
 CH2OH           3.619-14
 CH3O            8.215-15
 CH4             4.993-15
 CH3OH           6.347-16
 *CO             1.0238-1
 *CO2            1.7632-1
 COOH            3.9009-7
 CH2CO,ketene    4.060-16
 C2O             3.993-14
 *H              2.1311-2
 HCO             1.7751-7
 HCCO            7.707-16
 HO2             6.9790-5
 *H2             2.6735-2
 HCHO,formaldehy 1.1244-9
 HCOOH           1.2822-8
 H2O             3.3482-1
 H2O2            2.4107-6
 *O              4.1318-2
 *OH             9.1599-2
 *O2             2.0544-1
 O3              1.0862-7

  * THERMODYNAMIC PROPERTIES FITTED TO 20000.K









         THERMODYNAMIC EQUILIBRIUM COMBUSTION PROPERTIES AT ASSIGNED

                                   PRESSURES

 CASE =                

             REACTANT                       MOLES         ENERGY      TEMP
                                                         KJ/KG-MOL      K
 FUEL        C2H5OH                       1.0000000   -234828.916    300.000
 OXIDANT     O2                           3.0000000        54.358    300.000

 O/F=    2.60472  %FUEL= 27.741387  R,EQ.RATIO= 0.823529  PHI,EQ.RATIO= 0.800000

 THERMODYNAMIC PROPERTIES

 P, BAR            1.0000
 T, K             2967.30
 RHO, KG/CU M    1.0013-1
 H, KJ/KG        -1412.86
 U, KJ/KG        -2411.57
 G, KJ/KG        -36856.7
 S, KJ/(KG)(K)    11.9448

 M, (1/n)          24.704
 (dLV/dLP)t      -1.05607
 (dLV/dLT)p        2.1920
 Cp, KJ/(KG)(K)   10.5266
 GAMMAs            1.1081
 SON VEL,M/SEC     1052.0

 MOLE FRACTIONS

 *C              4.422-12
 *CH             3.947-13
 CH2             2.402-13
 CH3             1.501-13
 CH2OH           7.121-14
 CH3O            1.648-14
 CH4             1.278-14
 CH3OH           1.338-15
 *CO             1.2682-1
 *CO2            1.7070-1
 COOH            4.6749-7
 CH2CO,ketene    1.024-15
 C2O             8.704-14
 *H              2.6930-2
 HCO             2.6943-7
 HCCO            1.847-15
 HO2             6.1368-5
 *H2             3.5521-2
 HCHO,formaldehy 1.8524-9
 HCOOH           1.6650-8
 H2O             3.5061-1
 H2O2            2.3022-6
 *O              3.9919-2
 *OH             9.3298-2
 *O2             1.5614-1
 O3              7.6998-8

  * THERMODYNAMIC PROPERTIES FITTED TO 20000.K









         THERMODYNAMIC EQUILIBRIUM COMBUSTION PROPERTIES AT ASSIGNED

                                   PRESSURES

 CASE =                

             REACTANT                       MOLES         ENERGY      TEMP
                                                         KJ/KG-MOL      K
 FUEL        C2H5OH                       1.0000000   -234828.916    300.000
 OXIDANT     O2                           3.0000000        54.358    300.000

 O/F=    2.31531  %FUEL= 30.163102  R,EQ.RATIO= 0.913043  PHI,EQ.RATIO= 0.900000

 THERMODYNAMIC PROPERTIES

 P, BAR            1.0000
 T, K             2985.64
 RHO, KG/CU M    9.6519-2
 H, KJ/KG        -1536.35
 U, KJ/KG        -2572.41
 G, KJ/KG        -38128.2
 S, KJ/(KG)(K)    12.2560

 M, (1/n)          23.960
 (dLV/dLP)t      -1.05996
 (dLV/dLT)p        2.2618
 Cp, KJ/(KG)(K)   11.2754
 GAMMAs            1.1080
 SON VEL,M/SEC     1071.4

 MOLE FRACTIONS

 *C              7.470-12
 *CH             7.303-13
 CH2             4.759-13
 CH3             3.161-13
 CH2OH           1.244-13
 CH3O            2.914-14
 CH4             2.886-14
 CH3OH           2.524-15
 *CO             1.5031-1
 *CO2            1.6345-1
 COOH            5.2852-7
 CH2CO,ketene    2.226-15
 C2O             1.615-13
 *H              3.2206-2
 HCO             3.7464-7
 HCCO            3.759-15
 HO2             5.1946-5
 *H2             4.5314-2
 HCHO,formaldehy 2.8027-9
 HCOOH           2.0459-8
 H2O             3.6324-1
 H2O2            2.1211-6
 *O              3.6795-2
 *OH             9.1886-2
 *O2             1.1675-1
 O3              5.1924-8

  * THERMODYNAMIC PROPERTIES FITTED TO 20000.K









         THERMODYNAMIC EQUILIBRIUM COMBUSTION PROPERTIES AT ASSIGNED

                                   PRESSURES

 CASE =                

             REACTANT                       MOLES         ENERGY      TEMP
                                                         KJ/KG-MOL      K
 FUEL        C2H5OH                       1.0000000   -234828.916    300.000
 OXIDANT     O2                           3.0000000        54.358    300.000

 O/F=    2.08378  %FUEL= 32.427756  R,EQ.RATIO= 1.000000  PHI,EQ.RATIO= 1.000000

 THERMODYNAMIC PROPERTIES

 P, BAR            1.0000
 T, K             2995.23
 RHO, KG/CU M    9.3507-2
 H, KJ/KG        -1651.82
 U, KJ/KG        -2721.26
 G, KJ/KG        -39214.1
 S, KJ/(KG)(K)    12.5407

 M, (1/n)          23.287
 (dLV/dLP)t      -1.06165
 (dLV/dLT)p        2.2887
 Cp, KJ/(KG)(K)   11.7364
 GAMMAs            1.1083
 SON VEL,M/SEC     1088.7

 MOLE FRACTIONS

 *C              1.118-11
 *CH             1.198-12
 CH2             8.462-13
 CH3             6.065-13
 CH2OH           1.998-13
 CH3O            4.711-14
 CH4             6.005-14
 CH3OH           4.410-15
 *CO             1.7273-1
 *CO2            1.5511-1
 COOH            5.7159-7
 C2H2,acetylene  1.849-16
 CH2CO,ketene    4.369-15
 C2O             2.671-13
 *H              3.6949-2
 HCO             4.8904-7
 HCCO            6.821-15
 HO2             4.2384-5
 *H2             5.6208-2
 HCHO,formaldehy 3.9964-9
 HCOOH           2.4158-8
 H2O             3.7309-1
 H2O2            1.8908-6
 *O              3.2535-2
 *OH             8.7920-2
 *O2             8.5425-2
 O3              3.3220-8

  * THERMODYNAMIC PROPERTIES FITTED TO 20000.K









         THERMODYNAMIC EQUILIBRIUM COMBUSTION PROPERTIES AT ASSIGNED

                                   PRESSURES

 CASE =                

             REACTANT                       MOLES         ENERGY      TEMP
                                                         KJ/KG-MOL      K
 FUEL        C2H5OH                       1.0000000   -234828.916    300.000
 OXIDANT     O2                           3.0000000        54.358    300.000

 O/F=    1.89434  %FUEL= 34.550148  R,EQ.RATIO= 1.084507  PHI,EQ.RATIO= 1.100000

 THERMODYNAMIC PROPERTIES

 P, BAR            1.0000
 T, K             2997.02
 RHO, KG/CU M    9.0986-2
 H, KJ/KG        -1760.04
 U, KJ/KG        -2859.11
 G, KJ/KG        -40127.4
 S, KJ/(KG)(K)    12.8018

 M, (1/n)          22.673
 (dLV/dLP)t      -1.06099
 (dLV/dLT)p        2.2703
 Cp, KJ/(KG)(K)   11.8714
 GAMMAs            1.1089
 SON VEL,M/SEC     1104.0

 MOLE FRACTIONS

 *C              1.520-11
 *CH             1.791-12
 CH2             1.387-12
 CH3             1.090-12
 CH2OH           3.017-13
 CH3O            7.120-14
 CH4             1.184-13
 CH3OH           7.310-15
 *CO             1.9405-1
 *CO2            1.4602-1
 COOH            5.9592-7
 C2H2,acetylene  4.034-16
 CH2CO,ketene    7.985-15
 O(CH)2O         1.046-16
 C2O             4.049-13
 *H              4.0969-2
 HCO             6.0806-7
 HCCO            1.137-14
 HO2             3.3258-5
 *H2             6.8346-2
 HCHO,formaldehy 5.4598-9
 HCOOH           2.7670-8
 H2O             3.8035-1
 H2O2            1.6303-6
 *O              2.7611-2
 *OH             8.1841-2
 *O2             6.0775-2
 O3              2.0016-8

  * THERMODYNAMIC PROPERTIES FITTED TO 20000.K









         THERMODYNAMIC EQUILIBRIUM COMBUSTION PROPERTIES AT ASSIGNED

                                   PRESSURES

 CASE =                

             REACTANT                       MOLES         ENERGY      TEMP
                                                         KJ/KG-MOL      K
 FUEL        C2H5OH                       1.0000000   -234828.916    300.000
 OXIDANT     O2                           3.0000000        54.358    300.000

 O/F=    1.73648  %FUEL= 36.543275  R,EQ.RATIO= 1.166667  PHI,EQ.RATIO= 1.200000

 THERMODYNAMIC PROPERTIES

 P, BAR            1.0000
 T, K             2991.23
 RHO, KG/CU M    8.8889-2
 H, KJ/KG        -1861.68
 U, KJ/KG        -2986.67
 G, KJ/KG        -40872.7
 S, KJ/(KG)(K)    13.0418

 M, (1/n)          22.107
 (dLV/dLP)t      -1.05788
 (dLV/dLT)p        2.2046
 Cp, KJ/(KG)(K)   11.6421
 GAMMAs            1.1100
 SON VEL,M/SEC     1117.5

 MOLE FRACTIONS

 *C              1.898-11
 *CH             2.472-12
 CH2             2.132-12
 CH3             1.869-12
 CH2OH           4.341-13
 CH3O            1.021-13
 CH4             2.259-13
 CH3OH           1.168-14
 *CO             2.1429-1
 *CO2            1.3644-1
 COOH            6.0122-7
 C2H2,acetylene  8.284-16
 CH2CO,ketene    1.388-14
 O(CH)2O         1.525-16
 C2O             5.719-13
 C3O2            1.306-16
 *H              4.4061-2
 HCO             7.2649-7
 HCCO            1.774-14
 HO2             2.4967-5
 *H2             8.1923-2
 HCHO,formaldehy 7.2254-9
 HCOOH           3.0932-8
 H2O             3.8511-1
 H2O2            1.3555-6
 *O              2.2421-2
 *OH             7.4029-2
 *O2             4.1703-2
 O3              1.1229-8

  * THERMODYNAMIC PROPERTIES FITTED TO 20000.K









         THERMODYNAMIC EQUILIBRIUM COMBUSTION PROPERTIES AT ASSIGNED

                                   PRESSURES

 CASE =                

             REACTANT                       MOLES         ENERGY      TEMP
                                                         KJ/KG-MOL      K
 FUEL        C2H5OH                       1.0000000   -234828.916    300.000
 OXIDANT     O2                           3.0000000        54.358    300.000

 O/F=    1.60291  %FUEL= 38.418596  R,EQ.RATIO= 1.246575  PHI,EQ.RATIO= 1.300000

 THERMODYNAMIC PROPERTIES

 P, BAR            1.0000
 T, K             2977.59
 RHO, KG/CU M    8.7176-2
 H, KJ/KG        -1957.30
 U, KJ/KG        -3104.40
 G, KJ/KG        -41447.3
 S, KJ/(KG)(K)    13.2624

 M, (1/n)          21.582
 (dLV/dLP)t      -1.05241
 (dLV/dLT)p        2.0927
 Cp, KJ/(KG)(K)   11.0311
 GAMMAs            1.1118
 SON VEL,M/SEC     1129.3

 MOLE FRACTIONS

 *C              2.189-11
 *CH             3.176-12
 CH2             3.102-12
 CH3             3.099-12
 CH2OH           6.008-13
 CH3O            1.400-13
 CH4             4.238-13
 CH3OH           1.821-14
 *CO             2.3345-1
 *CO2            1.2652-1
 COOH            5.8759-7
 C2H             1.304-16
 C2H2,acetylene  1.632-15
 CH2CO,ketene    2.332-14
 O(CH)2O         2.132-16
 C2O             7.598-13
 C3O2            1.981-16
 *H              4.5999-2
 HCO             8.3808-7
 HCCO            2.623-14
 HO2             1.7787-5
 *H2             9.7176-2
 HCHO,formaldehy 9.3323-9
 HCOOH           3.3874-8
 H2O             3.8734-1
 H2O2            1.0809-6
 *O              1.7311-2
 *OH             6.4861-2
 *O2             2.7325-2
 O3              5.7722-9

  * THERMODYNAMIC PROPERTIES FITTED TO 20000.K









         THERMODYNAMIC EQUILIBRIUM COMBUSTION PROPERTIES AT ASSIGNED

                                   PRESSURES

 CASE =                

             REACTANT                       MOLES         ENERGY      TEMP
                                                         KJ/KG-MOL      K
 FUEL        C2H5OH                       1.0000000   -234828.916    300.000
 OXIDANT     O2                           3.0000000        54.358    300.000

 O/F=    1.48841  %FUEL= 40.186258  R,EQ.RATIO= 1.324324  PHI,EQ.RATIO= 1.400000

 THERMODYNAMIC PROPERTIES

 P, BAR            1.0000
 T, K             2955.38
 RHO, KG/CU M    8.5828-2
 H, KJ/KG        -2047.44
 U, KJ/KG        -3212.56
 G, KJ/KG        -41842.3
 S, KJ/(KG)(K)    13.4652

 M, (1/n)          21.090
 (dLV/dLP)t      -1.04501
 (dLV/dLT)p        1.9426
 Cp, KJ/(KG)(K)   10.0717
 GAMMAs            1.1145
 SON VEL,M/SEC     1139.5

 MOLE FRACTIONS

 *C              2.325-11
 *CH             3.799-12
 CH2             4.295-12
 CH3             5.013-12
 CH2OH           8.038-13
 CH3O            1.846-13
 CH4             7.921-13
 CH3OH           2.793-14
 *CO             2.5152-1
 *CO2            1.1643-1
 COOH            5.5572-7
 C2H             2.078-16
 C2H2,acetylene  3.125-15
 CH2CO,ketene    3.824-14
 O(CH)2O         2.880-16
 C2O             9.539-13
 C3O2            2.894-16
 *H              4.6541-2
 HCO             9.3517-7
 HCCO            3.703-14
 HO2             1.1894-5
 *H2             1.1436-1
 HCHO,formaldehy 1.1823-8
 HCOOH           3.6422-8
 H2O             3.8690-1
 H2O2            8.2034-7
 *O              1.2590-2
 *OH             5.4760-2
 *O2             1.6892-2
 O3              2.6652-9

  * THERMODYNAMIC PROPERTIES FITTED TO 20000.K









         THERMODYNAMIC EQUILIBRIUM COMBUSTION PROPERTIES AT ASSIGNED

                                   PRESSURES

 CASE =                

             REACTANT                       MOLES         ENERGY      TEMP
                                                         KJ/KG-MOL      K
 FUEL        C2H5OH                       1.0000000   -234828.916    300.000
 OXIDANT     O2                           3.0000000        54.358    300.000

 O/F=    1.38919  %FUEL= 41.855272  R,EQ.RATIO= 1.400000  PHI,EQ.RATIO= 1.500000

 THERMODYNAMIC PROPERTIES

 P, BAR            1.0000
 T, K             2923.63
 RHO, KG/CU M    8.4843-2
 H, KJ/KG        -2132.54
 U, KJ/KG        -3311.19
 G, KJ/KG        -42044.6
 S, KJ/(KG)(K)    13.6516

 M, (1/n)          20.624
 (dLV/dLP)t      -1.03655
 (dLV/dLT)p        1.7707
 Cp, KJ/(KG)(K)    8.8696
 GAMMAs            1.1185
 SON VEL,M/SEC     1148.2

 MOLE FRACTIONS

 *C              2.257-11
 *CH             4.211-12
 CH2             5.659-12
 CH3             7.956-12
 CH2OH           1.042-12
 CH3O            2.341-13
 CH4             1.490-12
 CH3OH           4.241-14
 *CO             2.6841-1
 *CO2            1.0634-1
 COOH            5.0727-7
 C2H             3.110-16
 C2H2,acetylene  5.872-15
 CH2CO,ketene    6.172-14
 O(CH)2O         3.774-16
 C2O             1.131-12
 C3O2            4.100-16
 *H              4.5466-2
 HCO             1.0087-6
 HCCO            5.001-14
 HO2             7.3705-6
 *H2             1.3371-1
 HCHO,formaldehy 1.4736-8
 HCOOH           3.8490-8
 H2O             3.8356-1
 H2O2            5.8698-7
 *O              8.5266-3
 *OH             4.4251-2
 *O2             9.7201-3
 O3              1.0800-9

  * THERMODYNAMIC PROPERTIES FITTED TO 20000.K









         THERMODYNAMIC EQUILIBRIUM COMBUSTION PROPERTIES AT ASSIGNED

                                   PRESSURES

 CASE =                

             REACTANT                       MOLES         ENERGY      TEMP
                                                         KJ/KG-MOL      K
 FUEL        C2H5OH                       1.0000000   -234828.916    300.000
 OXIDANT     O2                           3.0000000        54.358    300.000

 O/F=    1.30236  %FUEL= 43.433671  R,EQ.RATIO= 1.473684  PHI,EQ.RATIO= 1.600000

 THERMODYNAMIC PROPERTIES

 P, BAR            1.0000
 T, K             2881.35
 RHO, KG/CU M    8.4229-2
 H, KJ/KG        -2213.02
 U, KJ/KG        -3400.26
 G, KJ/KG        -42040.3
 S, KJ/(KG)(K)    13.8225

 M, (1/n)          20.179
 (dLV/dLP)t      -1.02814
 (dLV/dLT)p        1.5986
 Cp, KJ/(KG)(K)    7.5894
 GAMMAs            1.1243
 SON VEL,M/SEC     1155.4

 MOLE FRACTIONS

 *C              1.979-11
 *CH             4.288-12
 CH2             7.063-12
 CH3             1.241-11
 CH2OH           1.306-12
 CH3O            2.851-13
 CH4             2.840-12
 CH3OH           6.397-14
 *CO             2.8401-1
 *CO2            9.6484-2
 COOH            4.4542-7
 C2H             4.356-16
 C2H2,acetylene  1.087-14
 CH2CO,ketene    9.846-14
 O(CH)2O         4.801-16
 C2O             1.262-12
 C3O2            5.647-16
 *H              4.2658-2
 HCO             1.0490-6
 HCCO            6.455-14
 HO2             4.1763-6
 *H2             1.5530-1
 HCHO,formaldehy 1.8084-8
 HCOOH           3.9989-8
 H2O             3.7712-1
 H2O2            3.9208-7
 *O              5.3102-3
 *OH             3.3975-2
 *O2             5.1389-3
 O3              3.754-10

  * THERMODYNAMIC PROPERTIES FITTED TO 20000.K









         THERMODYNAMIC EQUILIBRIUM COMBUSTION PROPERTIES AT ASSIGNED

                                   PRESSURES

 CASE =                

             REACTANT                       MOLES         ENERGY      TEMP
                                                         KJ/KG-MOL      K
 FUEL        C2H5OH                       1.0000000   -234828.916    300.000
 OXIDANT     O2                           3.0000000        54.358    300.000

 O/F=    1.22575  %FUEL= 44.928641  R,EQ.RATIO= 1.545455  PHI,EQ.RATIO= 1.700000

 THERMODYNAMIC PROPERTIES

 P, BAR            1.0000
 T, K             2827.98
 RHO, KG/CU M    8.3998-2
 H, KJ/KG        -2289.25
 U, KJ/KG        -3479.76
 G, KJ/KG        -41821.0
 S, KJ/(KG)(K)    13.9788

 M, (1/n)          19.751
 (dLV/dLP)t      -1.02074
 (dLV/dLT)p        1.4457
 Cp, KJ/(KG)(K)    6.3964
 GAMMAs            1.1323
 SON VEL,M/SEC     1161.0

 MOLE FRACTIONS

 *C              1.547-11
 *CH             3.965-12
 CH2             8.293-12
 CH3             1.896-11
 CH2OH           1.578-12
 CH3O            3.318-13
 CH4             5.496-12
 CH3OH           9.583-14
 *CO             2.9811-1
 *CO2            8.7125-2
 COOH            3.7519-7
 C2H             5.666-16
 C2H2,acetylene  1.981-14
 CH2CO,ketene    1.553-13
 O(CH)2O         5.927-16
 C2O             1.317-12
 C3O2            7.569-16
 *H              3.8218-2
 HCO             1.0481-6
 HCCO            7.935-14
 HO2             2.1409-6
 *H2             1.7893-1
 HCHO,formaldehy 2.1835-8
 HCOOH           4.0847-8
 H2O             3.6750-1
 H2O2            2.4254-7
 *O              3.0090-3
 *OH             2.4627-2
 *O2             2.4720-3
 O3              1.099-10

  * THERMODYNAMIC PROPERTIES FITTED TO 20000.K









         THERMODYNAMIC EQUILIBRIUM COMBUSTION PROPERTIES AT ASSIGNED

                                   PRESSURES

 CASE =                

             REACTANT                       MOLES         ENERGY      TEMP
                                                         KJ/KG-MOL      K
 FUEL        C2H5OH                       1.0000000   -234828.916    300.000
 OXIDANT     O2                           3.0000000        54.358    300.000

 O/F=    1.15765  %FUEL= 46.346625  R,EQ.RATIO= 1.615385  PHI,EQ.RATIO= 1.800000

 THERMODYNAMIC PROPERTIES

 P, BAR            1.0000
 T, K             2763.76
 RHO, KG/CU M    8.4152-2
 H, KJ/KG        -2361.56
 U, KJ/KG        -3549.88
 G, KJ/KG        -41389.5
 S, KJ/(KG)(K)    14.1213

 M, (1/n)          19.338
 (dLV/dLP)t      -1.01482
 (dLV/dLT)p        1.3222
 Cp, KJ/(KG)(K)    5.3936
 GAMMAs            1.1423
 SON VEL,M/SEC     1165.1

 MOLE FRACTIONS

 *C              1.066-11
 *CH             3.296-12
 CH2             9.088-12
 CH3             2.827-11
 CH2OH           1.830-12
 CH3O            3.673-13
 CH4             1.077-11
 CH3OH           1.423-13
 *CO             3.1055-1
 *CO2            7.8536-2
 COOH            3.0285-7
 C2H             6.783-16
 C2H2,acetylene  3.538-14
 CH2CO,ketene    2.418-13
 O(CH)2O         7.089-16
 C2O             1.279-12
 C3O2            9.865-16
 *H              3.2537-2
 HCO             1.0029-6
 HCCO            9.244-14
 HO2             9.8765-7
 *H2             2.0406-1
 HCHO,formaldehy 2.5895-8
 HCOOH           4.1045-8
 H2O             3.5491-1
 H2O2            1.3839-7
 *O              1.5418-3
 *OH             1.6790-2
 *O2             1.0774-3
 O3              2.690-11

  * THERMODYNAMIC PROPERTIES FITTED TO 20000.K









         THERMODYNAMIC EQUILIBRIUM COMBUSTION PROPERTIES AT ASSIGNED

                                   PRESSURES

 CASE =                

             REACTANT                       MOLES         ENERGY      TEMP
                                                         KJ/KG-MOL      K
 FUEL        C2H5OH                       1.0000000   -234828.916    300.000
 OXIDANT     O2                           3.0000000        54.358    300.000

 O/F=    1.09673  %FUEL= 47.693421  R,EQ.RATIO= 1.683544  PHI,EQ.RATIO= 1.900000

 THERMODYNAMIC PROPERTIES

 P, BAR            1.0000
 T, K             2689.77
 RHO, KG/CU M    8.4685-2
 H, KJ/KG        -2430.23
 U, KJ/KG        -3611.08
 G, KJ/KG        -40761.6
 S, KJ/(KG)(K)    14.2508

 M, (1/n)          18.939
 (dLV/dLP)t      -1.01034
 (dLV/dLT)p        1.2281
 Cp, KJ/(KG)(K)    4.6038
 GAMMAs            1.1541
 SON VEL,M/SEC     1167.4

 MOLE FRACTIONS

 *C              6.427-12
 *CH             2.446-12
 CH2             9.237-12
 CH3             4.089-11
 CH2OH           2.031-12
 CH3O            3.855-13
 CH4             2.131-11
 CH3OH           2.087-13
 *CO             3.2122-1
 *CO2            7.0922-2
 COOH            2.3450-7
 C2H             7.415-16
 C2H2,acetylene  6.157-14
 CH2CO,ketene    3.705-13
 O(CH)2O         8.207-16
 C2O             1.152-12
 C3O2            1.249-15
 *H              2.6249-2
 HCO             9.1742-7
 HCCO            1.017-13
 HO2             4.1008-7
 *H2             2.2985-1
 HCHO,formaldehy 3.0122-8
 HCOOH           4.0630-8
 H2O             3.3986-1
 H2O2            7.2865-8
 *O              7.1327-4
 *OH             1.0758-2
 *O2             4.2604-4
 O3              5.509-12

  * THERMODYNAMIC PROPERTIES FITTED TO 20000.K









         THERMODYNAMIC EQUILIBRIUM COMBUSTION PROPERTIES AT ASSIGNED

                                   PRESSURES

 CASE =                

             REACTANT                       MOLES         ENERGY      TEMP
                                                         KJ/KG-MOL      K
 FUEL        C2H5OH                       1.0000000   -234828.916    300.000
 OXIDANT     O2                           3.0000000        54.358    300.000

 O/F=    1.04189  %FUEL= 48.974259  R,EQ.RATIO= 1.750000  PHI,EQ.RATIO= 2.000000

 THERMODYNAMIC PROPERTIES

 P, BAR            1.0000
 T, K             2607.62
 RHO, KG/CU M    8.5583-2
 H, KJ/KG        -2495.54
 U, KJ/KG        -3664.00
 G, KJ/KG        -39961.6
 S, KJ/(KG)(K)    14.3679

 M, (1/n)          18.555
 (dLV/dLP)t      -1.00706
 (dLV/dLT)p        1.1585
 Cp, KJ/(KG)(K)    4.0006
 GAMMAs            1.1672
 SON VEL,M/SEC     1167.9

 MOLE FRACTIONS

 *C              3.382-12
 *CH             1.615-12
 CH2             8.678-12
 CH3             5.723-11
 CH2OH           2.154-12
 CH3O            3.831-13
 CH4             4.243-11
 CH3OH           3.025-13
 *CO             3.3014-1
 *CO2            6.4369-2
 COOH            1.7456-7
 C2H             7.374-16
 C2H2,acetylene  1.040-13
 C2H2,vinylidene 1.149-16
 CH2CO,ketene    5.578-13
 O(CH)2O         9.204-16
 C2O             9.604-13
 C3O2            1.538-15
 *H              2.0044-2
 HCO             8.0215-7
 HCCO            1.054-13
 HO2             1.5365-7
 *H2             2.5545-1
 HCHO,formaldehy 3.4360-8
 HCOOH           3.9711-8
 H2O             3.2306-1
 H2O2            3.5486-8
 *O              2.9820-4
 *OH             6.4837-3
 *O2             1.5331-4
 O3              9.493-13

  * THERMODYNAMIC PROPERTIES FITTED TO 20000.K



