
 *******************************************************************************

         NASA-GLENN CHEMICAL EQUILIBRIUM PROGRAM CEA2, MAY 21, 2004
                   BY  BONNIE MCBRIDE AND SANFORD GORDON
      REFS: NASA RP-1311, PART I, 1994 AND NASA RP-1311, PART II, 1996

 *******************************************************************************



 problem    phi,eq.ratio=3.7,3.8,3.9,4,
       hp   p,bar=1,  t,k=3800
 react
   fuel=C2H5OH moles=1 t,k=300
   oxid=O2 moles=3 t,k=300
   oxid=N2 moles=11.2857 t,k=300
 output
      trace=1e-16 siunits short
 end




         THERMODYNAMIC EQUILIBRIUM COMBUSTION PROPERTIES AT ASSIGNED

                                   PRESSURES

 CASE =                

             REACTANT                       MOLES         ENERGY      TEMP
                                                         KJ/KG-MOL      K
 FUEL        C2H5OH                       1.0000000   -234828.916    300.000
 OXIDANT     O2                           3.0000000        54.358    300.000
 OXIDANT     N2                          11.2857000        53.881    300.000

 O/F=    2.41795  %FUEL= 29.257311  R,EQ.RATIO= 2.670103  PHI,EQ.RATIO= 3.700000

 THERMODYNAMIC PROPERTIES

 P, BAR            1.0000
 T, K              975.34
 RHO, KG/CU M    2.4626-1
 H, KJ/KG        -1490.04
 U, KJ/KG        -1896.11
 G, KJ/KG        -12371.3
 S, KJ/(KG)(K)    11.1564

 M, (1/n)          19.971
 (dLV/dLP)t      -1.02992
 (dLV/dLT)p        1.4468
 Cp, KJ/(KG)(K)    4.6105
 GAMMAs            1.1892
 SON VEL,M/SEC      694.9

 MOLE FRACTIONS

 CH3             3.760-10
 CH2OH           2.243-15
 CH4             1.0463-2
 CH3OH           7.874-10
 *CO             1.9844-1
 *CO2            4.4758-2
 COOH            1.458-13
 C2H2,acetylene  1.279-10
 CH2CO,ketene    7.956-10
 O(CH)2O         1.206-16
 CH3CN           5.3089-9
 CH3CO,acetyl    7.783-15
 C2H4            3.7085-8
 CH3CHO,ethanal  9.618-11
 CH3COOH         4.584-12
 C2H5            4.696-14
 C2H6            4.9106-8
 C2H5OH          8.039-14
 C2N2            1.313-15
 C3H4,allene     1.598-14
 C3H4,propyne    6.036-14
 C3H5,allyl      4.641-16
 C3H6,propylene  6.020-12
 C3H6,cyclo-     2.471-15
 C3H6O,acetone   2.067-14
 C3H6O,propanal  1.343-15
 C3H8            9.582-13
 C3O2            2.223-15
 C4H6,butadiene  3.052-16
 C4H8,1-butene   1.108-16
 C4H8,isobutene  1.541-16
 C6H6            2.266-16
 *H              6.485-10
 HCN             1.2858-6
 HCO             4.758-12
 HNC             1.2428-9
 HNCO            6.2148-8
 *H2             3.1490-1
 HCHO,formaldehy 3.5388-8
 HCOOH           1.0978-8
 H2O             4.4547-2
 NH2             2.035-13
 NH3             7.5915-5
 *NO             2.104-16
 *N2             3.8682-1
 *OH             2.153-13

  * THERMODYNAMIC PROPERTIES FITTED TO 20000.K









         THERMODYNAMIC EQUILIBRIUM COMBUSTION PROPERTIES AT ASSIGNED

                                   PRESSURES

 CASE =                

             REACTANT                       MOLES         ENERGY      TEMP
                                                         KJ/KG-MOL      K
 FUEL        C2H5OH                       1.0000000   -234828.916    300.000
 OXIDANT     O2                           3.0000000        54.358    300.000
 OXIDANT     N2                          11.2857000        53.881    300.000

 O/F=    2.35432  %FUEL= 29.812312  R,EQ.RATIO= 2.714286  PHI,EQ.RATIO= 3.800000

 THERMODYNAMIC PROPERTIES

 P, BAR            1.0000
 T, K              966.47
 RHO, KG/CU M    2.4812-1
 H, KJ/KG        -1518.34
 U, KJ/KG        -1921.37
 G, KJ/KG        -12310.5
 S, KJ/(KG)(K)    11.1667

 M, (1/n)          19.938
 MW, MOL WT        19.928
 (dLV/dLP)t      -1.05509
 (dLV/dLT)p        1.9514
 Cp, KJ/(KG)(K)    8.9070
 GAMMAs            1.1405
 SON VEL,M/SEC      678.0

 MOLE FRACTIONS

 CH3             3.842-10
 CH2OH           2.039-15
 CH4             1.3849-2
 CH3OH           8.892-10
 *CO             1.9810-1
 *CO2            4.5432-2
 COOH            1.211-13
 C2H2,acetylene  1.411-10
 CH2CO,ketene    8.898-10
 O(CH)2O         1.195-16
 CH3CN           7.0648-9
 CH3CO,acetyl    8.365-15
 C2H4            5.0657-8
 CH3CHO,ethanal  1.243-10
 CH3COOH         5.893-12
 C2H5            5.977-14
 C2H6            7.9063-8
 C2H5OH          1.132-13
 C2N2            1.297-15
 C3H4,allene     2.217-14
 C3H4,propyne    8.436-14
 C3H5,allyl      6.661-16
 C3H6,propylene  1.026-11
 C3H6,cyclo-     4.056-15
 C3H6O,acetone   3.407-14
 C3H6O,propanal  2.125-15
 C3H8            1.897-12
 C3O2            2.275-15
 C4H6,butadiene  5.557-16
 C4H8,1-butene   2.321-16
 C4H8,cis2-buten 1.825-16
 C4H8,tr2-butene 2.113-16
 C4H8,isobutene  3.290-16
 C6H6            6.092-16
 *H              5.046-10
 HCN             1.3155-6
 HCO             4.012-12
 HNC             1.1845-9
 HNCO            6.2461-8
 *H2             3.1545-1
 HCHO,formaldehy 3.5633-8
 HCOOH           1.1035-8
 H2O             4.3606-2
 NH2             1.646-13
 NH3             8.0636-5
 *NO             1.393-16
 *N2             3.8295-1
 *OH             1.526-13
 C(gr)           5.2822-4

  * THERMODYNAMIC PROPERTIES FITTED TO 20000.K









         THERMODYNAMIC EQUILIBRIUM COMBUSTION PROPERTIES AT ASSIGNED

                                   PRESSURES

 CASE =                

             REACTANT                       MOLES         ENERGY      TEMP
                                                         KJ/KG-MOL      K
 FUEL        C2H5OH                       1.0000000   -234828.916    300.000
 OXIDANT     O2                           3.0000000        54.358    300.000
 OXIDANT     N2                          11.2857000        53.881    300.000

 O/F=    2.29395  %FUEL= 30.358672  R,EQ.RATIO= 2.757576  PHI,EQ.RATIO= 3.900000

 THERMODYNAMIC PROPERTIES

 P, BAR            1.0000
 T, K              963.73
 RHO, KG/CU M    2.4854-1
 H, KJ/KG        -1546.20
 U, KJ/KG        -1948.54
 G, KJ/KG        -12317.3
 S, KJ/(KG)(K)    11.1764

 M, (1/n)          19.916
 MW, MOL WT        19.783
 (dLV/dLP)t      -1.05601
 (dLV/dLT)p        1.9661
 Cp, KJ/(KG)(K)    9.0358
 GAMMAs            1.1397
 SON VEL,M/SEC      677.2

 MOLE FRACTIONS

 CH3             3.694-10
 CH2OH           1.962-15
 CH4             1.4506-2
 CH3OH           9.197-10
 *CO             1.9333-1
 *CO2            4.6243-2
 COOH            1.164-13
 C2H2,acetylene  1.309-10
 CH2CO,ketene    8.601-10
 O(CH)2O         1.154-16
 CH3CN           6.9618-9
 CH3CO,acetyl    8.026-15
 C2H4            5.0728-8
 CH3CHO,ethanal  1.269-10
 CH3COOH         6.235-12
 C2H5            5.884-14
 C2H6            8.4166-8
 C2H5OH          1.199-13
 C2N2            1.144-15
 C3H4,allene     2.112-14
 C3H4,propyne    8.054-14
 C3H5,allyl      6.445-16
 C3H6,propylene  1.052-11
 C3H6,cyclo-     4.112-15
 C3H6O,acetone   3.588-14
 C3H6O,propanal  2.211-15
 C3H8            2.059-12
 C3O2            2.080-15
 C4H6,butadiene  5.509-16
 C4H8,1-butene   2.428-16
 C4H8,cis2-buten 1.915-16
 C4H8,tr2-butene 2.219-16
 C4H8,isobutene  3.461-16
 C6H6            6.112-16
 *H              4.662-10
 HCN             1.2492-6
 HCO             3.733-12
 HNC             1.1002-9
 HNCO            6.1202-8
 *H2             3.1685-1
 HCHO,formaldehy 3.5212-8
 HCOOH           1.1309-8
 H2O             4.5121-2
 NH2             1.542-13
 NH3             8.2648-5
 *NO             1.260-16
 *N2             3.7721-1
 *OH             1.420-13
 C(gr)           6.6582-3

  * THERMODYNAMIC PROPERTIES FITTED TO 20000.K









         THERMODYNAMIC EQUILIBRIUM COMBUSTION PROPERTIES AT ASSIGNED

                                   PRESSURES

 CASE =                

             REACTANT                       MOLES         ENERGY      TEMP
                                                         KJ/KG-MOL      K
 FUEL        C2H5OH                       1.0000000   -234828.916    300.000
 OXIDANT     O2                           3.0000000        54.358    300.000
 OXIDANT     N2                          11.2857000        53.881    300.000

 O/F=    2.23660  %FUEL= 30.896592  R,EQ.RATIO= 2.800000  PHI,EQ.RATIO= 4.000000

 THERMODYNAMIC PROPERTIES

 P, BAR            1.0000
 T, K              961.09
 RHO, KG/CU M    2.4895-1
 H, KJ/KG        -1573.63
 U, KJ/KG        -1975.31
 G, KJ/KG        -12324.3
 S, KJ/(KG)(K)    11.1859

 M, (1/n)          19.894
 MW, MOL WT        19.644
 (dLV/dLP)t      -1.05688
 (dLV/dLT)p        1.9799
 Cp, KJ/(KG)(K)    9.1565
 GAMMAs            1.1390
 SON VEL,M/SEC      676.4

 MOLE FRACTIONS

 CH3             3.555-10
 CH2OH           1.888-15
 CH4             1.5167-2
 CH3OH           9.496-10
 *CO             1.8873-1
 *CO2            4.7007-2
 COOH            1.118-13
 C2H2,acetylene  1.217-10
 CH2CO,ketene    8.318-10
 O(CH)2O         1.114-16
 CH3CN           6.8610-9
 CH3CO,acetyl    7.705-15
 C2H4            5.0778-8
 CH3CHO,ethanal  1.294-10
 CH3COOH         6.578-12
 C2H5            5.793-14
 C2H6            8.9382-8
 C2H5OH          1.267-13
 C2N2            1.013-15
 C3H4,allene     2.015-14
 C3H4,propyne    7.698-14
 C3H5,allyl      6.239-16
 C3H6,propylene  1.078-11
 C3H6,cyclo-     4.165-15
 C3H6O,acetone   3.770-14
 C3H6O,propanal  2.295-15
 C3H8            2.228-12
 C3O2            1.906-15
 C4H6,butadiene  5.459-16
 C4H8,1-butene   2.535-16
 C4H8,cis2-buten 2.006-16
 C4H8,tr2-butene 2.325-16
 C4H8,isobutene  3.633-16
 C6H6            6.128-16
 *H              4.316-10
 HCN             1.1878-6
 HCO             3.479-12
 HNC             1.0239-9
 HNCO            5.9971-8
 *H2             3.1815-1
 HCHO,formaldehy 3.4790-8
 HCOOH           1.1571-8
 H2O             4.6614-2
 NH2             1.447-13
 NH3             8.4617-5
 *NO             1.142-16
 *N2             3.7166-1
 *OH             1.324-13
 C(gr)           1.2581-2

  * THERMODYNAMIC PROPERTIES FITTED TO 20000.K



