
 *******************************************************************************

         NASA-GLENN CHEMICAL EQUILIBRIUM PROGRAM CEA2, MAY 21, 2004
                   BY  BONNIE MCBRIDE AND SANFORD GORDON
      REFS: NASA RP-1311, PART I, 1994 AND NASA RP-1311, PART II, 1996

 *******************************************************************************



 problem    phi,eq.ratio=3.7,3.8,3.9,4,
       hp   p,bar=1,  t,k=3800
 react
   fuel=C2H6 moles=1 t,k=300
   oxid=O2 moles=3.5 t,k=300
   oxid=N2 moles=13.1667 t,k=300
 output
      trace=1e-16 siunits short
 end




         THERMODYNAMIC EQUILIBRIUM COMBUSTION PROPERTIES AT ASSIGNED

                                   PRESSURES

 CASE =                

             REACTANT                       MOLES         ENERGY      TEMP
                                                         KJ/KG-MOL      K
 FUEL        C2H6                         1.0000000    -83754.210    300.000
 OXIDANT     O2                           3.5000000        54.358    300.000
 OXIDANT     N2                          13.1667000        53.881    300.000

 O/F=    4.32194  %FUEL= 18.790126  R,EQ.RATIO= 3.700000  PHI,EQ.RATIO= 3.700000

 THERMODYNAMIC PROPERTIES

 P, BAR            1.0000
 T, K             1001.99
 RHO, KG/CU M    2.3868-1
 H, KJ/KG         -521.86
 U, KJ/KG         -940.83
 G, KJ/KG        -11673.1
 S, KJ/(KG)(K)    11.1291

 M, (1/n)          19.885
 MW, MOL WT        19.065
 (dLV/dLP)t      -1.03546
 (dLV/dLT)p        1.5740
 Cp, KJ/(KG)(K)    5.8039
 GAMMAs            1.1669
 SON VEL,M/SEC      699.2

 MOLE FRACTIONS

 CH3             7.253-10
 CH2OH           2.737-15
 CH4             9.7952-3
 CH3OH           5.266-10
 *CO             1.7072-1
 *CO2            1.6557-2
 COOH            9.893-14
 C2H2,acetylene  3.817-10
 CH2CO,ketene    1.0298-9
 O(CH)2O         1.001-16
 C2H3,vinyl      3.633-16
 CH3CN           9.9669-9
 CH3CO,acetyl    1.161-14
 C2H4            6.2834-8
 CH3CHO,ethanal  8.632-11
 CH3COOH         1.884-12
 C2H5            1.002-13
 C2H6            5.4462-8
 C2H5OH          5.933-14
 C2N2            5.701-15
 C3H4,allene     5.132-14
 C3H4,propyne    1.898-13
 C3H5,allyl      1.387-15
 C3H6,propylene  1.124-11
 C3H6,cyclo-     5.140-15
 C3H6O,acetone   1.917-14
 C3H6O,propanal  1.400-15
 C3H8            1.221-12
 C3O2            3.161-15
 C4H6,butadiene  9.335-16
 C4H8,1-butene   2.375-16
 C4H8,cis2-buten 1.787-16
 C4H8,tr2-butene 2.060-16
 C4H8,isobutene  3.129-16
 C6H6            8.803-16
 *H              1.3186-9
 HCN             2.4732-6
 HCO             6.855-12
 HNC             2.9359-9
 HNCO            5.6782-8
 *H2             3.1616-1
 HCHO,formaldehy 3.1301-8
 HCOOH           4.4047-9
 H2O             2.1561-2
 NH2             4.003-13
 NH3             6.9610-5
 *NO             3.164-16
 *N2             4.2393-1
 *OH             2.587-13
 C(gr)           4.1200-2

  * THERMODYNAMIC PROPERTIES FITTED TO 20000.K









         THERMODYNAMIC EQUILIBRIUM COMBUSTION PROPERTIES AT ASSIGNED

                                   PRESSURES

 CASE =                

             REACTANT                       MOLES         ENERGY      TEMP
                                                         KJ/KG-MOL      K
 FUEL        C2H6                         1.0000000    -83754.210    300.000
 OXIDANT     O2                           3.5000000        54.358    300.000
 OXIDANT     N2                          13.1667000        53.881    300.000

 O/F=    4.20821  %FUEL= 19.200459  R,EQ.RATIO= 3.800000  PHI,EQ.RATIO= 3.800000

 THERMODYNAMIC PROPERTIES

 P, BAR            1.0000
 T, K              997.70
 RHO, KG/CU M    2.3928-1
 H, KJ/KG         -533.30
 U, KJ/KG         -951.22
 G, KJ/KG        -11648.7
 S, KJ/(KG)(K)    11.1411

 M, (1/n)          19.849
 MW, MOL WT        18.889
 (dLV/dLP)t      -1.03679
 (dLV/dLT)p        1.5955
 Cp, KJ/(KG)(K)    5.9807
 GAMMAs            1.1648
 SON VEL,M/SEC      697.7

 MOLE FRACTIONS

 CH3             6.840-10
 CH2OH           2.588-15
 CH4             1.0462-2
 CH3OH           5.532-10
 *CO             1.6532-1
 *CO2            1.7083-2
 COOH            9.374-14
 C2H2,acetylene  3.419-10
 CH2CO,ketene    9.816-10
 C2H3,vinyl      3.169-16
 CH3CN           9.7744-9
 CH3CO,acetyl    1.093-14
 C2H4            6.2836-8
 CH3CHO,ethanal  8.900-11
 CH3COOH         2.050-12
 C2H5            9.764-14
 C2H6            5.9455-8
 C2H5OH          6.442-14
 C2N2            4.781-15
 C3H4,allene     4.771-14
 C3H4,propyne    1.770-13
 C3H5,allyl      1.318-15
 C3H6,propylene  1.162-11
 C3H6,cyclo-     5.225-15
 C3H6O,acetone   2.065-14
 C3H6O,propanal  1.480-15
 C3H8            1.369-12
 C3O2            2.788-15
 C4H6,butadiene  9.179-16
 C4H8,1-butene   2.522-16
 C4H8,cis2-buten 1.907-16
 C4H8,tr2-butene 2.200-16
 C4H8,isobutene  3.352-16
 C6H6            8.811-16
 *H              1.1747-9
 HCN             2.3015-6
 HCO             6.184-12
 HNC             2.6450-9
 HNCO            5.5429-8
 *H2             3.1811-1
 HCHO,formaldehy 3.0815-8
 HCOOH           4.5816-9
 H2O             2.2704-2
 NH2             3.648-13
 NH3             7.2308-5
 *NO             2.748-16
 *N2             4.1788-1
 *OH             2.336-13
 C(gr)           4.8368-2

  * THERMODYNAMIC PROPERTIES FITTED TO 20000.K









         THERMODYNAMIC EQUILIBRIUM COMBUSTION PROPERTIES AT ASSIGNED

                                   PRESSURES

 CASE =                

             REACTANT                       MOLES         ENERGY      TEMP
                                                         KJ/KG-MOL      K
 FUEL        C2H6                         1.0000000    -83754.210    300.000
 OXIDANT     O2                           3.5000000        54.358    300.000
 OXIDANT     N2                          13.1667000        53.881    300.000

 O/F=    4.10031  %FUEL= 19.606667  R,EQ.RATIO= 3.900000  PHI,EQ.RATIO= 3.900000

 THERMODYNAMIC PROPERTIES

 P, BAR            1.0000
 T, K              993.58
 RHO, KG/CU M    2.3986-1
 H, KJ/KG         -544.62
 U, KJ/KG         -961.54
 G, KJ/KG        -11625.7
 S, KJ/(KG)(K)    11.1527

 M, (1/n)          19.815
 MW, MOL WT        18.719
 (dLV/dLP)t      -1.03808
 (dLV/dLT)p        1.6160
 Cp, KJ/(KG)(K)    6.1494
 GAMMAs            1.1629
 SON VEL,M/SEC      696.3

 MOLE FRACTIONS

 CH3             6.462-10
 CH2OH           2.449-15
 CH4             1.1144-2
 CH3OH           5.795-10
 *CO             1.6009-1
 *CO2            1.7574-2
 COOH            8.881-14
 C2H2,acetylene  3.073-10
 CH2CO,ketene    9.360-10
 C2H3,vinyl      2.776-16
 CH3CN           9.5882-9
 CH3CO,acetyl    1.031-14
 C2H4            6.2813-8
 CH3CHO,ethanal  9.156-11
 CH3COOH         2.219-12
 C2H5            9.519-14
 C2H6            6.4679-8
 C2H5OH          6.966-14
 C2N2            4.033-15
 C3H4,allene     4.444-14
 C3H4,propyne    1.654-13
 C3H5,allyl      1.254-15
 C3H6,propylene  1.199-11
 C3H6,cyclo-     5.305-15
 C3H6O,acetone   2.215-14
 C3H6O,propanal  1.559-15
 C3H8            1.528-12
 C3O2            2.465-15
 C4H6,butadiene  9.027-16
 C4H8,1-butene   2.671-16
 C4H8,cis2-buten 2.030-16
 C4H8,tr2-butene 2.343-16
 C4H8,isobutene  3.579-16
 C6H6            8.815-16
 *H              1.0505-9
 HCN             2.1465-6
 HCO             5.593-12
 HNC             2.3909-9
 HNCO            5.4089-8
 *H2             3.1993-1
 HCHO,formaldehy 3.0318-8
 HCOOH           4.7495-9
 H2O             2.3839-2
 NH2             3.335-13
 NH3             7.4985-5
 *NO             2.396-16
 *N2             4.1204-1
 *OH             2.114-13
 C(gr)           5.5304-2

  * THERMODYNAMIC PROPERTIES FITTED TO 20000.K









         THERMODYNAMIC EQUILIBRIUM COMBUSTION PROPERTIES AT ASSIGNED

                                   PRESSURES

 CASE =                

             REACTANT                       MOLES         ENERGY      TEMP
                                                         KJ/KG-MOL      K
 FUEL        C2H6                         1.0000000    -83754.210    300.000
 OXIDANT     O2                           3.5000000        54.358    300.000
 OXIDANT     N2                          13.1667000        53.881    300.000

 O/F=    3.99780  %FUEL= 20.008810  R,EQ.RATIO= 4.000000  PHI,EQ.RATIO= 4.000000

 THERMODYNAMIC PROPERTIES

 P, BAR            1.0000
 T, K              989.63
 RHO, KG/CU M    2.4041-1
 H, KJ/KG         -555.83
 U, KJ/KG         -971.78
 G, KJ/KG        -11604.1
 S, KJ/(KG)(K)    11.1640

 M, (1/n)          19.782
 MW, MOL WT        18.555
 (dLV/dLP)t      -1.03932
 (dLV/dLT)p        1.6355
 Cp, KJ/(KG)(K)    6.3103
 GAMMAs            1.1612
 SON VEL,M/SEC      695.0

 MOLE FRACTIONS

 CH3             6.114-10
 CH2OH           2.319-15
 CH4             1.1843-2
 CH3OH           6.053-10
 *CO             1.5505-1
 *CO2            1.8030-2
 COOH            8.412-14
 C2H2,acetylene  2.771-10
 CH2CO,ketene    8.930-10
 C2H3,vinyl      2.442-16
 CH3CN           9.4078-9
 CH3CO,acetyl    9.722-15
 C2H4            6.2766-8
 CH3CHO,ethanal  9.399-11
 CH3COOH         2.390-12
 C2H5            9.283-14
 C2H6            7.0134-8
 C2H5OH          7.503-14
 C2N2            3.420-15
 C3H4,allene     4.147-14
 C3H4,propyne    1.549-13
 C3H5,allyl      1.194-15
 C3H6,propylene  1.236-11
 C3H6,cyclo-     5.380-15
 C3H6O,acetone   2.367-14
 C3H6O,propanal  1.638-15
 C3H8            1.698-12
 C3O2            2.184-15
 C4H6,butadiene  8.877-16
 C4H8,1-butene   2.822-16
 C4H8,cis2-buten 2.155-16
 C4H8,tr2-butene 2.488-16
 C4H8,isobutene  3.811-16
 C6H6            8.812-16
 *H              9.426-10
 HCN             2.0059-6
 HCO             5.068-12
 HNC             2.1676-9
 HNCO            5.2766-8
 *H2             3.2164-1
 HCHO,formaldehy 2.9811-8
 HCOOH           4.9083-9
 H2O             2.4964-2
 NH2             3.056-13
 NH3             7.7643-5
 *NO             2.096-16
 *N2             4.0638-1
 *OH             1.917-13
 C(gr)           6.2017-2

  * THERMODYNAMIC PROPERTIES FITTED TO 20000.K



