
 *******************************************************************************

         NASA-GLENN CHEMICAL EQUILIBRIUM PROGRAM CEA2, MAY 21, 2004
                   BY  BONNIE MCBRIDE AND SANFORD GORDON
      REFS: NASA RP-1311, PART I, 1994 AND NASA RP-1311, PART II, 1996

 *******************************************************************************



 problem    phi,eq.ratio=2.1,2.2,2.3,2.4,2.5,2.6,2.7,2.8,2.9,3,3.1,3.2,3.3,3.4,3.
 5,3.6,
       hp   p,bar=1,  t,k=3800
 react
   fuel=C3H8 moles=1 t,k=300
   oxid=O2 moles=5 t,k=300
 output
      trace=1e-16 siunits short
 end




         THERMODYNAMIC EQUILIBRIUM COMBUSTION PROPERTIES AT ASSIGNED

                                   PRESSURES

 CASE =                

             REACTANT                       MOLES         ENERGY      TEMP
                                                         KJ/KG-MOL      K
 FUEL        C3H8                         1.0000000   -104543.521    300.000
 OXIDANT     O2                           5.0000000        54.358    300.000

 O/F=    1.72778  %FUEL= 36.659821  R,EQ.RATIO= 2.100000  PHI,EQ.RATIO= 2.100000

 THERMODYNAMIC PROPERTIES

 P, BAR            1.0000
 T, K             2655.15
 RHO, KG/CU M    7.6552-2
 H, KJ/KG         -868.07
 U, KJ/KG        -2174.37
 G, KJ/KG        -41279.1
 S, KJ/(KG)(K)    15.2199

 M, (1/n)          16.900
 (dLV/dLP)t      -1.00834
 (dLV/dLT)p        1.1793
 Cp, KJ/(KG)(K)    4.3511
 GAMMAs            1.1750
 SON VEL,M/SEC     1238.9

 MOLE FRACTIONS

 *C              1.327-11
 *CH             6.591-12
 CH2             3.421-11
 CH3             2.122-10
 CH2OH           4.142-12
 CH3O            7.652-13
 CH4             1.519-10
 CH3OH           5.753-13
 *CO             3.8583-1
 *CO2            3.5666-2
 COOH            1.2904-7
 C2H             6.377-15
 C2H2,acetylene  7.833-13
 C2H2,vinylidene 9.999-16
 CH2CO,ketene    1.981-12
 O(CH)2O         1.712-15
 CH3CO,acetyl    3.944-16
 C2H4            1.170-16
 C2O             3.418-12
 C3O2            5.173-15
 *H              2.7884-2
 HCO             1.2242-6
 HCCO            3.921-13
 HO2             6.3047-8
 *H2             3.3879-1
 HCHO,formaldehy 5.3294-8
 HCOOH           2.9724-8
 H2O             2.0699-1
 H2O2            1.4832-8
 *O              2.1915-4
 *OH             4.5680-3
 *O2             5.4230-5
 O3              2.278-13

  * THERMODYNAMIC PROPERTIES FITTED TO 20000.K









         THERMODYNAMIC EQUILIBRIUM COMBUSTION PROPERTIES AT ASSIGNED

                                   PRESSURES

 CASE =                

             REACTANT                       MOLES         ENERGY      TEMP
                                                         KJ/KG-MOL      K
 FUEL        C3H8                         1.0000000   -104543.521    300.000
 OXIDANT     O2                           5.0000000        54.358    300.000

 O/F=    1.64925  %FUEL= 37.746582  R,EQ.RATIO= 2.200000  PHI,EQ.RATIO= 2.200000

 THERMODYNAMIC PROPERTIES

 P, BAR            1.0000
 T, K             2558.89
 RHO, KG/CU M    7.7565-2
 H, KJ/KG         -893.85
 U, KJ/KG        -2183.10
 G, KJ/KG        -40202.5
 S, KJ/(KG)(K)    15.3616

 M, (1/n)          16.503
 (dLV/dLP)t      -1.00559
 (dLV/dLT)p        1.1236
 Cp, KJ/(KG)(K)    3.8444
 GAMMAs            1.1903
 SON VEL,M/SEC     1238.8

 MOLE FRACTIONS

 *C              6.075-12
 *CH             3.888-12
 CH2             3.027-11
 CH3             2.977-10
 CH2OH           4.115-12
 CH3O            7.031-13
 CH4             3.202-10
 CH3OH           8.169-13
 *CO             3.9284-1
 *CO2            3.0950-2
 COOH            8.6279-8
 C2H             6.141-15
 C2H2,acetylene  1.403-12
 C2H2,vinylidene 1.329-15
 CH2CO,ketene    3.056-12
 O(CH)2O         1.832-15
 C2H3,vinyl      1.410-16
 CH3CO,acetyl    5.899-16
 C2H4            3.123-16
 C2O             2.689-12
 C3O2            6.428-15
 *H              1.9709-2
 HCO             1.0039-6
 HCCO            3.933-13
 HO2             1.8467-8
 *H2             3.6914-1
 HCHO,formaldehy 5.9052-8
 HCOOH           2.7063-8
 H2O             1.8486-1
 H2O2            5.8423-9
 *O              7.5575-5
 *OH             2.4006-3
 *O2             1.5445-5
 O3              2.641-14

  * THERMODYNAMIC PROPERTIES FITTED TO 20000.K









         THERMODYNAMIC EQUILIBRIUM COMBUSTION PROPERTIES AT ASSIGNED

                                   PRESSURES

 CASE =                

             REACTANT                       MOLES         ENERGY      TEMP
                                                         KJ/KG-MOL      K
 FUEL        C3H8                         1.0000000   -104543.521    300.000
 OXIDANT     O2                           5.0000000        54.358    300.000

 O/F=    1.57754  %FUEL= 38.796681  R,EQ.RATIO= 2.300000  PHI,EQ.RATIO= 2.300000

 THERMODYNAMIC PROPERTIES

 P, BAR            1.0000
 T, K             2456.14
 RHO, KG/CU M    7.8941-2
 H, KJ/KG         -918.77
 U, KJ/KG        -2185.53
 G, KJ/KG        -38964.6
 S, KJ/(KG)(K)    15.4901

 M, (1/n)          16.121
 (dLV/dLP)t      -1.00357
 (dLV/dLT)p        1.0814
 Cp, KJ/(KG)(K)    3.4412
 GAMMAs            1.2073
 SON VEL,M/SEC     1236.7

 MOLE FRACTIONS

 *C              2.378-12
 *CH             2.014-12
 CH2             2.470-11
 CH3             4.086-10
 CH2OH           3.907-12
 CH3O            6.111-13
 CH4             6.955-10
 CH3OH           1.158-12
 *CO             3.9857-1
 *CO2            2.6950-2
 COOH            5.4900-8
 C2H             5.404-15
 C2H2,acetylene  2.495-12
 C2H2,vinylidene 1.673-15
 CH2CO,ketene    4.715-12
 O(CH)2O         1.911-15
 C2H3,vinyl      2.306-16
 CH3CO,acetyl    8.681-16
 C2H4            8.583-16
 C2O             1.957-12
 C3O2            7.890-15
 *H              1.3044-2
 HCO             7.8351-7
 HCCO            3.738-13
 HO2             4.7009-9
 *H2             3.9722-1
 HCHO,formaldehy 6.4446-8
 HCOOH           2.4303-8
 H2O             1.6303-1
 H2O2            2.0667-9
 *O              2.2817-5
 *OH             1.1628-3
 *O2             3.8544-6
 O3              2.421-15

  * THERMODYNAMIC PROPERTIES FITTED TO 20000.K









         THERMODYNAMIC EQUILIBRIUM COMBUSTION PROPERTIES AT ASSIGNED

                                   PRESSURES

 CASE =                

             REACTANT                       MOLES         ENERGY      TEMP
                                                         KJ/KG-MOL      K
 FUEL        C3H8                         1.0000000   -104543.521    300.000
 OXIDANT     O2                           5.0000000        54.358    300.000

 O/F=    1.51181  %FUEL= 39.811940  R,EQ.RATIO= 2.400000  PHI,EQ.RATIO= 2.400000

 THERMODYNAMIC PROPERTIES

 P, BAR            1.0000
 T, K             2348.01
 RHO, KG/CU M    8.0702-2
 H, KJ/KG         -942.85
 U, KJ/KG        -2181.99
 G, KJ/KG        -37584.5
 S, KJ/(KG)(K)    15.6054

 M, (1/n)          15.755
 (dLV/dLP)t      -1.00214
 (dLV/dLT)p        1.0508
 Cp, KJ/(KG)(K)    3.1309
 GAMMAs            1.2254
 SON VEL,M/SEC     1232.3

 MOLE FRACTIONS

 *C              7.860-13
 *CH             9.083-13
 CH2             1.855-11
 CH3             5.514-10
 CH2OH           3.549-12
 CH3O            5.025-13
 CH4             1.5774-9
 CH3OH           1.650-12
 *CO             4.0320-1
 *CO2            2.3535-2
 COOH            3.3098-8
 C2H             4.340-15
 C2H2,acetylene  4.447-12
 C2H2,vinylidene 2.002-15
 CH2CO,ketene    7.331-12
 O(CH)2O         1.951-15
 C2H3,vinyl      3.691-16
 CH3CO,acetyl    1.266-15
 C2H4            2.468-15
 CH3CHO,ethanal  1.466-16
 C2O             1.312-12
 C3O2            9.608-15
 *H              8.0436-3
 HCO             5.8058-7
 HCCO            3.369-13
 HO2             1.0224-9
 *H2             4.2281-1
 HCHO,formaldehy 6.9458-8
 HCOOH           2.1545-8
 H2O             1.4189-1
 H2O2            6.485-10
 *O              5.9376-6
 *OH             5.1442-4
 *O2             8.2803-7
 O3              1.702-16

  * THERMODYNAMIC PROPERTIES FITTED TO 20000.K









         THERMODYNAMIC EQUILIBRIUM COMBUSTION PROPERTIES AT ASSIGNED

                                   PRESSURES

 CASE =                

             REACTANT                       MOLES         ENERGY      TEMP
                                                         KJ/KG-MOL      K
 FUEL        C3H8                         1.0000000   -104543.521    300.000
 OXIDANT     O2                           5.0000000        54.358    300.000

 O/F=    1.45134  %FUEL= 40.794066  R,EQ.RATIO= 2.500000  PHI,EQ.RATIO= 2.500000

 THERMODYNAMIC PROPERTIES

 P, BAR            1.0000
 T, K             2236.02
 RHO, KG/CU M    8.2859-2
 H, KJ/KG         -966.15
 U, KJ/KG        -2173.02
 G, KJ/KG        -36089.0
 S, KJ/(KG)(K)    15.7077

 M, (1/n)          15.405
 (dLV/dLP)t      -1.00120
 (dLV/dLT)p        1.0298
 Cp, KJ/(KG)(K)    2.9045
 GAMMAs            1.2435
 SON VEL,M/SEC     1225.1

 MOLE FRACTIONS

 *C              2.175-13
 *CH             3.549-13
 CH2             1.282-11
 CH3             7.364-10
 CH2OH           3.089-12
 CH3O            3.914-13
 CH4             3.7836-9
 CH3OH           2.379-12
 *CO             4.0695-1
 *CO2            2.0585-2
 COOH            1.8825-8
 C2H             3.189-15
 C2H2,acetylene  8.025-12
 C2H2,vinylidene 2.294-15
 CH2CO,ketene    1.159-11
 O(CH)2O         1.955-15
 C2H3,vinyl      5.838-16
 CH3CO,acetyl    1.847-15
 C2H4            7.548-15
 CH3CHO,ethanal  3.336-16
 C2O             8.106-13
 C3O2            1.168-14
 *H              4.6038-3
 HCO             4.0777-7
 HCCO            2.885-13
 HO2             1.870-10
 *H2             4.4593-1
 HCHO,formaldehy 7.4129-8
 HCOOH           1.8864-8
 H2O             1.2172-1
 H2O2            1.784-10
 *O              1.3138-6
 *OH             2.0616-4
 *O2             1.5061-7

  * THERMODYNAMIC PROPERTIES FITTED TO 20000.K









         THERMODYNAMIC EQUILIBRIUM COMBUSTION PROPERTIES AT ASSIGNED

                                   PRESSURES

 CASE =                

             REACTANT                       MOLES         ENERGY      TEMP
                                                         KJ/KG-MOL      K
 FUEL        C3H8                         1.0000000   -104543.521    300.000
 OXIDANT     O2                           5.0000000        54.358    300.000

 O/F=    1.39552  %FUEL= 41.744655  R,EQ.RATIO= 2.600000  PHI,EQ.RATIO= 2.600000

 THERMODYNAMIC PROPERTIES

 P, BAR            1.0000
 T, K             2122.11
 RHO, KG/CU M    8.5417-2
 H, KJ/KG         -988.71
 U, KJ/KG        -2159.43
 G, KJ/KG        -34511.8
 S, KJ/(KG)(K)    15.7971

 M, (1/n)          15.071
 (dLV/dLP)t      -1.00063
 (dLV/dLT)p        1.0163
 Cp, KJ/(KG)(K)    2.7502
 GAMMAs            1.2603
 SON VEL,M/SEC     1214.7

 MOLE FRACTIONS

 *C              5.029-14
 *CH             1.202-13
 CH2             8.189-12
 CH3             9.804-10
 CH2OH           2.582-12
 CH3O            2.895-13
 CH4             9.7078-9
 CH3OH           3.493-12
 *CO             4.1005-1
 *CO2            1.7985-2
 COOH            1.0062-8
 C2H             2.160-15
 C2H2,acetylene  1.484-11
 C2H2,vinylidene 2.539-15
 CH2CO,ketene    1.876-11
 O(CH)2O         1.930-15
 C2H3,vinyl      9.239-16
 CH3CO,acetyl    2.718-15
 C2H4            2.494-14
 CH3CHO,ethanal  8.043-16
 C2O             4.621-13
 C3O2            1.426-14
 *H              2.4420-3
 HCO             2.7140-7
 HCCO            2.359-13
 HO2             2.839-11
 *H2             4.6678-1
 HCHO,formaldehy 7.8551-8
 HCOOH           1.6302-8
 H2O             1.0267-1
 H2O2            4.261-11
 *O              2.4479-7
 *OH             7.4358-5
 *O2             2.2880-8

  * THERMODYNAMIC PROPERTIES FITTED TO 20000.K









         THERMODYNAMIC EQUILIBRIUM COMBUSTION PROPERTIES AT ASSIGNED

                                   PRESSURES

 CASE =                

             REACTANT                       MOLES         ENERGY      TEMP
                                                         KJ/KG-MOL      K
 FUEL        C3H8                         1.0000000   -104543.521    300.000
 OXIDANT     O2                           5.0000000        54.358    300.000

 O/F=    1.34383  %FUEL= 42.665202  R,EQ.RATIO= 2.700000  PHI,EQ.RATIO= 2.700000

 THERMODYNAMIC PROPERTIES

 P, BAR            1.0000
 T, K             2008.25
 RHO, KG/CU M    8.8370-2
 H, KJ/KG        -1010.55
 U, KJ/KG        -2142.16
 G, KJ/KG        -32888.2
 S, KJ/(KG)(K)    15.8733

 M, (1/n)          14.756
 (dLV/dLP)t      -1.00031
 (dLV/dLT)p        1.0084
 Cp, KJ/(KG)(K)    2.6529
 GAMMAs            1.2750
 SON VEL,M/SEC     1201.1

 MOLE FRACTIONS

 *C              9.750-15
 *CH             3.543-14
 CH2             4.861-12
 CH3             1.3120-9
 CH2OH           2.079-12
 CH3O            2.040-13
 CH4             2.6926-8
 CH3OH           5.243-12
 *CO             4.1268-1
 *CO2            1.5630-2
 COOH            5.0333-9
 C2H             1.364-15
 C2H2,acetylene  2.852-11
 C2H2,vinylidene 2.750-15
 CH2CO,ketene    3.141-11
 O(CH)2O         1.884-15
 C2H3,vinyl      1.484-15
 CH3CO,acetyl    4.076-15
 C2H4            9.055-14
 CH3CHO,ethanal  2.078-15
 C2O             2.447-13
 C3O2            1.765-14
 *H              1.2006-3
 HCO             1.7130-7
 HCCO            1.856-13
 HO2             3.536-12
 *H2             4.8565-1
 HCHO,formaldehy 8.2839-8
 HCOOH           1.3874-8
 H2O             8.4813-2
 H2O2            8.738-12
 *O              3.8137-8
 *OH             2.3998-5
 *O2             2.8667-9

  * THERMODYNAMIC PROPERTIES FITTED TO 20000.K









         THERMODYNAMIC EQUILIBRIUM COMBUSTION PROPERTIES AT ASSIGNED

                                   PRESSURES

 CASE =                

             REACTANT                       MOLES         ENERGY      TEMP
                                                         KJ/KG-MOL      K
 FUEL        C3H8                         1.0000000   -104543.521    300.000
 OXIDANT     O2                           5.0000000        54.358    300.000

 O/F=    1.29584  %FUEL= 43.557109  R,EQ.RATIO= 2.800000  PHI,EQ.RATIO= 2.800000

 THERMODYNAMIC PROPERTIES

 P, BAR            1.0000
 T, K             1896.09
 RHO, KG/CU M    9.1711-2
 H, KJ/KG        -1031.71
 U, KJ/KG        -2122.09
 G, KJ/KG        -31248.7
 S, KJ/(KG)(K)    15.9365

 M, (1/n)          14.458
 (dLV/dLP)t      -1.00014
 (dLV/dLT)p        1.0040
 Cp, KJ/(KG)(K)    2.5960
 GAMMAs            1.2873
 SON VEL,M/SEC     1184.7

 MOLE FRACTIONS

 *C              1.595-15
 *CH             9.161-15
 CH2             2.706-12
 CH3             1.7825-9
 CH2OH           1.615-12
 CH3O            1.372-13
 CH4             8.1689-8
 CH3OH           8.079-12
 *CO             4.1503-1
 *CO2            1.3424-2
 COOH            2.3410-9
 C2H             8.161-16
 C2H2,acetylene  5.801-11
 C2H2,vinylidene 2.965-15
 CH2CO,ketene    5.495-11
 O(CH)2O         1.825-15
 C2H3,vinyl      2.463-15
 CH3CO,acetyl    6.301-15
 C2H4            3.684-13
 CH3CHO,ethanal  5.822-15
 CH3COOH         1.408-16
 C2H6            1.508-16
 C2O             1.212-13
 C3O2            2.234-14
 *H              5.4718-4
 HCO             1.0260-7
 HCCO            1.416-13
 HO2             3.556-13
 *H2             5.0281-1
 HCHO,formaldehy 8.7115-8
 HCOOH           1.1573-8
 H2O             6.8180-2
 H2O2            1.517-12
 *O              4.9235-9
 *OH             6.8758-6
 *O2             2.914-10

  * THERMODYNAMIC PROPERTIES FITTED TO 20000.K









         THERMODYNAMIC EQUILIBRIUM COMBUSTION PROPERTIES AT ASSIGNED

                                   PRESSURES

 CASE =                

             REACTANT                       MOLES         ENERGY      TEMP
                                                         KJ/KG-MOL      K
 FUEL        C3H8                         1.0000000   -104543.521    300.000
 OXIDANT     O2                           5.0000000        54.358    300.000

 O/F=    1.25115  %FUEL= 44.421691  R,EQ.RATIO= 2.900000  PHI,EQ.RATIO= 2.900000

 THERMODYNAMIC PROPERTIES

 P, BAR            1.0000
 T, K             1786.74
 RHO, KG/CU M    9.5445-2
 H, KJ/KG        -1052.22
 U, KJ/KG        -2099.94
 G, KJ/KG        -29615.7
 S, KJ/(KG)(K)    15.9863

 M, (1/n)          14.179
 (dLV/dLP)t      -1.00006
 (dLV/dLT)p        1.0018
 Cp, KJ/(KG)(K)    2.5647
 GAMMAs            1.2977
 SON VEL,M/SEC     1166.0

 MOLE FRACTIONS

 *C              2.215-16
 *CH             2.093-15
 CH2             1.426-12
 CH3             2.4917-9
 CH2OH           1.213-12
 CH3O            8.825-14
 CH4             2.7558-7
 CH3OH           1.282-11
 *CO             4.1725-1
 *CO2            1.1274-2
 COOH            1.0004-9
 C2H             4.730-16
 C2H2,acetylene  1.281-10
 C2H2,vinylidene 3.258-15
 CH2CO,ketene    1.019-10
 O(CH)2O         1.757-15
 C2H3,vinyl      4.334-15
 CH3CO,acetyl    1.019-14
 C2H4            1.728-12
 CH3CHO,ethanal  1.800-14
 CH3COOH         3.324-16
 C2H6            1.261-15
 C2O             5.680-14
 C3O2            2.935-14
 *H              2.3081-4
 HCO             5.8275-8
 HCCO            1.061-13
 HO2             2.808-14
 *H2             5.1849-1
 HCHO,formaldehy 9.1495-8
 HCOOH           9.3756-9
 H2O             5.2757-2
 H2O2            2.171-13
 *O              5.181-10
 *OH             1.7244-6
 *O2             2.336-11

  * THERMODYNAMIC PROPERTIES FITTED TO 20000.K









         THERMODYNAMIC EQUILIBRIUM COMBUSTION PROPERTIES AT ASSIGNED

                                   PRESSURES

 CASE =                

             REACTANT                       MOLES         ENERGY      TEMP
                                                         KJ/KG-MOL      K
 FUEL        C3H8                         1.0000000   -104543.521    300.000
 OXIDANT     O2                           5.0000000        54.358    300.000

 O/F=    1.20945  %FUEL= 45.260186  R,EQ.RATIO= 3.000000  PHI,EQ.RATIO= 3.000000

 THERMODYNAMIC PROPERTIES

 P, BAR            1.0000
 T, K             1680.75
 RHO, KG/CU M    9.9591-2
 H, KJ/KG        -1072.12
 U, KJ/KG        -2076.22
 G, KJ/KG        -28002.3
 S, KJ/(KG)(K)    16.0227

 M, (1/n)          13.918
 (dLV/dLP)t      -1.00003
 (dLV/dLT)p        1.0008
 Cp, KJ/(KG)(K)    2.5478
 GAMMAs            1.3069
 SON VEL,M/SEC     1145.5

 MOLE FRACTIONS

 *CH             4.272-16
 CH2             7.234-13
 CH3             3.6609-9
 CH2OH           8.788-13
 CH3O            5.421-14
 CH4             1.0621-6
 CH3OH           2.104-11
 *CO             4.1946-1
 *CO2            9.0869-3
 COOH            3.841-10
 C2H             2.749-16
 C2H2,acetylene  3.203-10
 C2H2,vinylidene 3.791-15
 CH2CO,ketene    2.052-10
 O(CH)2O         1.685-15
 C2H3,vinyl      8.427-15
 CH3CO,acetyl    1.764-14
 C2H4            9.807-12
 CH3CHO,ethanal  6.312-14
 CH3COOH         8.479-16
 C2H5            4.247-16
 C2H6            1.341-14
 C2O             2.554-14
 C3O2            4.086-14
 *H              8.9707-5
 HCO             3.1304-8
 HCCO            7.942-14
 HO2             1.654-15
 *H2             5.3283-1
 HCHO,formaldehy 9.6087-8
 HCOOH           7.2456-9
 H2O             3.8531-2
 H2O2            2.443-14
 *O              4.306-11
 *OH             3.6869-7
 *O2             1.403-12

  * THERMODYNAMIC PROPERTIES FITTED TO 20000.K









         THERMODYNAMIC EQUILIBRIUM COMBUSTION PROPERTIES AT ASSIGNED

                                   PRESSURES

 CASE =                

             REACTANT                       MOLES         ENERGY      TEMP
                                                         KJ/KG-MOL      K
 FUEL        C3H8                         1.0000000   -104543.521    300.000
 OXIDANT     O2                           5.0000000        54.358    300.000

 O/F=    1.17043  %FUEL= 46.073756  R,EQ.RATIO= 3.100000  PHI,EQ.RATIO= 3.100000

 THERMODYNAMIC PROPERTIES

 P, BAR            1.0000
 T, K             1578.29
 RHO, KG/CU M    1.0419-1
 H, KJ/KG        -1091.42
 U, KJ/KG        -2051.22
 G, KJ/KG        -26415.0
 S, KJ/(KG)(K)    16.0449

 M, (1/n)          13.672
 (dLV/dLP)t      -1.00003
 (dLV/dLT)p        1.0004
 Cp, KJ/(KG)(K)    2.5377
 GAMMAs            1.3155
 SON VEL,M/SEC     1123.7

 MOLE FRACTIONS

 CH2             3.643-13
 CH3             5.8935-9
 CH2OH           6.135-13
 CH3O            3.169-14
 CH4             4.9180-6
 CH3OH           3.590-11
 *CO             4.2180-1
 *CO2            6.7603-3
 COOH            1.265-10
 C2H             1.720-16
 C2H2,acetylene  9.881-10
 C2H2,vinylidene 5.048-15
 CH2CO,ketene    4.691-10
 O(CH)2O         1.612-15
 C2H3,vinyl      1.966-14
 CH3CO,acetyl    3.416-14
 C2H4            7.382-11
 CH3CHO,ethanal  2.639-13
 CH3COOH         2.362-15
 C2H5            2.412-15
 C2H6            2.001-13
 C2O             1.137-14
 C3H3,2-propynl  2.096-16
 C3H4,allene     2.719-16
 C3H4,propyne    7.514-16
 C3O2            6.295-14
 *H              3.1866-5
 HCO             1.5820-8
 HCCO            6.161-14
 *H2             5.4590-1
 HCHO,formaldehy 1.0100-7
 HCOOH           5.1392-9
 H2O             2.5502-2
 H2O2            1.966-15
 *O              2.663-12
 *OH             6.3829-8
 *O2             5.706-14

  * THERMODYNAMIC PROPERTIES FITTED TO 20000.K









         THERMODYNAMIC EQUILIBRIUM COMBUSTION PROPERTIES AT ASSIGNED

                                   PRESSURES

 CASE =                

             REACTANT                       MOLES         ENERGY      TEMP
                                                         KJ/KG-MOL      K
 FUEL        C3H8                         1.0000000   -104543.521    300.000
 OXIDANT     O2                           5.0000000        54.358    300.000

 O/F=    1.13386  %FUEL= 46.863498  R,EQ.RATIO= 3.200000  PHI,EQ.RATIO= 3.200000

 THERMODYNAMIC PROPERTIES

 P, BAR            1.0000
 T, K             1479.36
 RHO, KG/CU M    1.0929-1
 H, KJ/KG        -1110.15
 U, KJ/KG        -2025.16
 G, KJ/KG        -24856.8
 S, KJ/(KG)(K)    16.0520

 M, (1/n)          13.443
 (dLV/dLP)t      -1.00013
 (dLV/dLT)p        1.0013
 Cp, KJ/(KG)(K)    2.5335
 GAMMAs            1.3238
 SON VEL,M/SEC     1100.6

 MOLE FRACTIONS

 CH2             2.008-13
 CH3             1.1596-8
 CH2OH           4.110-13
 CH3O            1.754-14
 CH4             3.0877-5
 CH3OH           6.404-11
 *CO             4.2439-1
 *CO2            4.1723-3
 COOH            3.188-11
 C2H             1.422-16
 C2H2,acetylene  4.6891-9
 C2H2,vinylidene 9.506-15
 CH2CO,ketene    1.3646-9
 O(CH)2O         1.539-15
 C2H3,vinyl      6.843-14
 CH3CO,acetyl    8.283-14
 C2H4            9.284-10
 CH3CHO,ethanal  1.484-12
 CH3COOH         7.277-15
 C2H5            2.222-14
 C2H6            5.314-12
 C2H5OH          1.004-16
 C2O             5.516-15
 C3H3,2-propynl  2.291-15
 C3H4,allene     6.309-15
 C3H4,propyne    1.806-14
 C3H6,propylene  2.223-15
 C3O2            1.198-13
 *H              1.0234-5
 HCO             7.4684-9
 HCCO            5.486-14
 *H2             5.5768-1
 HCHO,formaldehy 1.0634-7
 HCOOH           3.0070-9
 H2O             1.3717-2
 *O              1.072-13
 *OH             7.9108-9
 *O2             1.233-15

  * THERMODYNAMIC PROPERTIES FITTED TO 20000.K









         THERMODYNAMIC EQUILIBRIUM COMBUSTION PROPERTIES AT ASSIGNED

                                   PRESSURES

 CASE =                

             REACTANT                       MOLES         ENERGY      TEMP
                                                         KJ/KG-MOL      K
 FUEL        C3H8                         1.0000000   -104543.521    300.000
 OXIDANT     O2                           5.0000000        54.358    300.000

 O/F=    1.09950  %FUEL= 47.630442  R,EQ.RATIO= 3.300000  PHI,EQ.RATIO= 3.300000

 THERMODYNAMIC PROPERTIES

 P, BAR            1.0000
 T, K             1386.17
 RHO, KG/CU M    1.1485-1
 H, KJ/KG        -1128.35
 U, KJ/KG        -1999.03
 G, KJ/KG        -23363.4
 S, KJ/(KG)(K)    16.0407

 M, (1/n)          13.237
 (dLV/dLP)t      -1.00160
 (dLV/dLT)p        1.0162
 Cp, KJ/(KG)(K)    2.6180
 GAMMAs            1.3266
 SON VEL,M/SEC     1074.7

 MOLE FRACTIONS

 CH2             2.100-13
 CH3             4.7389-8
 CH2OH           2.657-13
 CH3O            9.280-15
 CH4             4.3820-4
 CH3OH           1.182-10
 *CO             4.2726-1
 *CO2            1.2527-3
 COOH            3.653-12
 C2H             4.605-16
 C2H2,acetylene  9.8689-8
 C2H2,vinylidene 7.406-14
 CH2CO,ketene    8.5377-9
 O(CH)2O         1.469-15
 C2H3,vinyl      1.029-12
 CH3CO,acetyl    4.261-13
 C2H4            5.5318-8
 CH3CHO,ethanal  1.875-11
 CH3COOH         2.436-14
 C2H5            9.458-13
 C2H6            7.031-10
 C2H5OH          1.924-15
 C2O             5.079-15
 C3H3,2-propynl  2.349-13
 C3H4,allene     1.449-12
 C3H4,propyne    4.304-12
 C3H4,cyclo-     6.501-16
 C3H5,allyl      1.998-14
 C3H6,propylene  1.385-12
 C3H6,cyclo-     1.938-15
 C3H6O,acetone   3.028-16
 C3H8            3.408-15
 C3O2            4.800-13
 C4H2,butadiyne  6.431-15
 C4H6,butadiene  8.679-16
 *H              3.0263-6
 HCO             3.3328-9
 HCCO            9.659-14
 *H2             5.6753-1
 HCHO,formaldehy 1.1201-7
 HCOOH           8.517-10
 H2O             3.5186-3
 *O              1.719-15
 *OH             4.219-10

  * THERMODYNAMIC PROPERTIES FITTED TO 20000.K









         THERMODYNAMIC EQUILIBRIUM COMBUSTION PROPERTIES AT ASSIGNED

                                   PRESSURES

 CASE =                

             REACTANT                       MOLES         ENERGY      TEMP
                                                         KJ/KG-MOL      K
 FUEL        C3H8                         1.0000000   -104543.521    300.000
 OXIDANT     O2                           5.0000000        54.358    300.000

 O/F=    1.06716  %FUEL= 48.375561  R,EQ.RATIO= 3.400000  PHI,EQ.RATIO= 3.400000

 THERMODYNAMIC PROPERTIES

 P, BAR            1.0000
 T, K             1341.41
 RHO, KG/CU M    1.1823-1
 H, KJ/KG        -1146.03
 U, KJ/KG        -1991.87
 G, KJ/KG        -22619.6
 S, KJ/(KG)(K)    16.0082

 M, (1/n)          13.186
 MW, MOL WT        13.074
 (dLV/dLP)t      -1.00404
 (dLV/dLT)p        1.0426
 Cp, KJ/(KG)(K)    2.8243
 GAMMAs            1.3135
 SON VEL,M/SEC     1054.0

 MOLE FRACTIONS

 CH2             2.396-13
 CH3             1.1136-7
 CH2OH           2.064-13
 CH3O            6.493-15
 CH4             1.9939-3
 CH3OH           1.602-10
 *CO             4.1922-1
 *CO2            5.6905-4
 COOH            9.963-13
 C2H             1.076-15
 C2H2,acetylene  6.2136-7
 C2H2,vinylidene 2.752-13
 CH2CO,ketene    2.4821-8
 O(CH)2O         1.386-15
 C2H3,vinyl      5.422-12
 CH3CO,acetyl    1.118-12
 C2H4            6.0481-7
 C2H4O,ethylen-o 2.019-16
 CH3CHO,ethanal  7.917-11
 CH3COOH         4.476-14
 C2H5            8.656-12
 C2H6            1.1742-8
 C2H5OH          1.014-14
 C2O             5.348-15
 C3H3,2-propynl  3.848-12
 C3H4,allene     3.640-11
 C3H4,propyne    1.103-10
 C3H4,cyclo-     1.277-14
 C3H5,allyl      5.467-13
 C3H6,propylene  5.909-11
 C3H6,cyclo-     7.489-14
 C3H6O,acetone   5.286-15
 C3H6O,propanal  1.159-15
 C3H7,n-propyl   1.457-16
 C3H7,i-propyl   1.697-16
 C3H8            2.137-13
 C3O2            1.088-12
 C4H2,butadiyne  2.532-13
 C4H6,butadiene  9.628-14
 C4H6,1butyne    2.146-15
 C4H6,2butyne    3.390-15
 C4H8,1-butene   1.006-15
 C4H8,cis2-buten 5.527-16
 C4H8,tr2-butene 6.233-16
 C4H8,isobutene  8.009-16
 C5H6,1,3cyclo-  1.390-15
 C6H6            3.141-14
 *H              1.5756-6
 HCO             2.1263-9
 HCCO            1.434-13
 *H2             5.6823-1
 HCHO,formaldehy 1.1269-7
 HCOOH           3.759-10
 H2O             1.4895-3
 *O              1.677-16
 *OH             7.776-11
 C(gr)           8.4989-3

  * THERMODYNAMIC PROPERTIES FITTED TO 20000.K









         THERMODYNAMIC EQUILIBRIUM COMBUSTION PROPERTIES AT ASSIGNED

                                   PRESSURES

 CASE =                

             REACTANT                       MOLES         ENERGY      TEMP
                                                         KJ/KG-MOL      K
 FUEL        C3H8                         1.0000000   -104543.521    300.000
 OXIDANT     O2                           5.0000000        54.358    300.000

 O/F=    1.03667  %FUEL= 49.099775  R,EQ.RATIO= 3.500000  PHI,EQ.RATIO= 3.500000

 THERMODYNAMIC PROPERTIES

 P, BAR            1.0000
 T, K             1310.04
 RHO, KG/CU M    1.2088-1
 H, KJ/KG        -1163.21
 U, KJ/KG        -1990.51
 G, KJ/KG        -22088.6
 S, KJ/(KG)(K)    15.9731

 M, (1/n)          13.166
 MW, MOL WT        12.892
 (dLV/dLP)t      -1.00520
 (dLV/dLT)p        1.0568
 Cp, KJ/(KG)(K)    2.9563
 GAMMAs            1.3044
 SON VEL,M/SEC     1038.8

 MOLE FRACTIONS

 CH2             1.049-13
 CH3             8.3441-8
 CH2OH           1.694-13
 CH3O            4.932-15
 CH4             2.4441-3
 CH3OH           1.990-10
 *CO             4.0665-1
 *CO2            7.7628-4
 COOH            9.328-13
 C2H             3.181-16
 C2H2,acetylene  3.8411-7
 C2H2,vinylidene 1.150-13
 CH2CO,ketene    2.1527-8
 O(CH)2O         1.300-15
 C2H3,vinyl      2.942-12
 CH3CO,acetyl    9.004-13
 C2H4            5.6506-7
 C2H4O,ethylen-o 1.815-16
 CH3CHO,ethanal  9.093-11
 CH3COOH         6.908-14
 C2H5            7.101-12
 C2H6            1.5080-8
 C2H5OH          1.377-14
 C2O             2.176-15
 C3H3,2-propynl  1.927-12
 C3H4,allene     2.509-11
 C3H4,propyne    7.713-11
 C3H4,cyclo-     7.331-15
 C3H5,allyl      4.023-13
 C3H6,propylene  6.055-11
 C3H6,cyclo-     7.133-14
 C3H6O,acetone   6.949-15
 C3H6O,propanal  1.408-15
 C3H7,n-propyl   1.267-16
 C3H7,i-propyl   1.514-16
 C3H8            2.926-13
 C3O2            7.741-13
 C4H2,butadiyne  9.653-14
 C4H6,butadiene  7.978-14
 C4H6,1butyne    1.597-15
 C4H6,2butyne    2.655-15
 C4H8,1-butene   1.100-15
 C4H8,cis2-buten 6.182-16
 C4H8,tr2-butene 6.979-16
 C4H8,isobutene  9.074-16
 C5H6,1,3cyclo-  1.108-15
 C6H6            2.810-14
 *H              9.6734-7
 HCO             1.5018-9
 HCCO            7.541-14
 *H2             5.6738-1
 HCHO,formaldehy 1.1180-7
 HCOOH           5.042-10
 H2O             1.9540-3
 *OH             5.496-11
 C(gr)           2.0792-2

  * THERMODYNAMIC PROPERTIES FITTED TO 20000.K









         THERMODYNAMIC EQUILIBRIUM COMBUSTION PROPERTIES AT ASSIGNED

                                   PRESSURES

 CASE =                

             REACTANT                       MOLES         ENERGY      TEMP
                                                         KJ/KG-MOL      K
 FUEL        C3H8                         1.0000000   -104543.521    300.000
 OXIDANT     O2                           5.0000000        54.358    300.000

 O/F=    1.00787  %FUEL= 49.803951  R,EQ.RATIO= 3.600000  PHI,EQ.RATIO= 3.600000

 THERMODYNAMIC PROPERTIES

 P, BAR            1.0000
 T, K             1281.29
 RHO, KG/CU M    1.2345-1
 H, KJ/KG        -1179.92
 U, KJ/KG        -1989.96
 G, KJ/KG        -21600.0
 S, KJ/(KG)(K)    15.9372

 M, (1/n)          13.151
 MW, MOL WT        12.723
 (dLV/dLP)t      -1.00663
 (dLV/dLT)p        1.0748
 Cp, KJ/(KG)(K)    3.1234
 GAMMAs            1.2940
 SON VEL,M/SEC     1023.8

 MOLE FRACTIONS

 CH2             4.744-14
 CH3             6.3196-8
 CH2OH           1.399-13
 CH3O            3.786-15
 CH4             2.9693-3
 CH3OH           2.448-10
 *CO             3.9456-1
 *CO2            1.0446-3
 COOH            8.745-13
 C2H2,acetylene  2.4192-7
 C2H2,vinylidene 4.974-14
 CH2CO,ketene    1.8756-8
 O(CH)2O         1.220-15
 C2H3,vinyl      1.634-12
 CH3CO,acetyl    7.308-13
 C2H4            5.2889-7
 C2H4O,ethylen-o 1.636-16
 CH3CHO,ethanal  1.037-10
 CH3COOH         1.046-13
 C2H5            5.866-12
 C2H6            1.9151-8
 C2H5OH          1.846-14
 C2O             9.170-16
 C3H3,2-propynl  9.915-13
 C3H4,allene     1.754-11
 C3H4,propyne    5.466-11
 C3H4,cyclo-     4.301-15
 C3H5,allyl      2.994-13
 C3H6,propylene  6.192-11
 C3H6,cyclo-     6.801-14
 C3H6O,acetone   9.020-15
 C3H6O,propanal  1.694-15
 C3H7,n-propyl   1.107-16
 C3H7,i-propyl   1.355-16
 C3H8            3.951-13
 C3O2            5.577-13
 C4H2,butadiyne  3.823-14
 C4H6,butadiene  6.656-14
 C4H6,1butyne    1.202-15
 C4H6,2butyne    2.098-15
 C4H8,1-butene   1.196-15
 C4H8,cis2-buten 6.875-16
 C4H8,tr2-butene 7.769-16
 C4H8,isobutene  1.022-15
 C5H6,1,3cyclo-  8.906-16
 C6H6            2.522-14
 *H              6.0570-7
 HCO             1.0746-9
 HCCO            4.065-14
 *H2             5.6635-1
 HCHO,formaldehy 1.1083-7
 HCOOH           6.677-10
 H2O             2.5327-3
 *OH             3.936-11
 C(gr)           3.2541-2

  * THERMODYNAMIC PROPERTIES FITTED TO 20000.K



