
 *******************************************************************************

         NASA-GLENN CHEMICAL EQUILIBRIUM PROGRAM CEA2, MAY 21, 2004
                   BY  BONNIE MCBRIDE AND SANFORD GORDON
      REFS: NASA RP-1311, PART I, 1994 AND NASA RP-1311, PART II, 1996

 *******************************************************************************



 problem    phi,eq.ratio=3.7,3.8,3.9,4,
       hp   p,bar=1,  t,k=3800
 react
   fuel=C3H8 moles=1 t,k=300
   oxid=O2 moles=5 t,k=300
 output
      trace=1e-16 siunits short
 end




         THERMODYNAMIC EQUILIBRIUM COMBUSTION PROPERTIES AT ASSIGNED

                                   PRESSURES

 CASE =                

             REACTANT                       MOLES         ENERGY      TEMP
                                                         KJ/KG-MOL      K
 FUEL        C3H8                         1.0000000   -104543.521    300.000
 OXIDANT     O2                           5.0000000        54.358    300.000

 O/F=    0.98063  %FUEL= 50.488908  R,EQ.RATIO= 3.700000  PHI,EQ.RATIO= 3.700000

 THERMODYNAMIC PROPERTIES

 P, BAR            1.0000
 T, K             1255.13
 RHO, KG/CU M    1.2593-1
 H, KJ/KG        -1196.17
 U, KJ/KG        -1990.27
 G, KJ/KG        -21153.8
 S, KJ/(KG)(K)    15.9008

 M, (1/n)          13.142
 MW, MOL WT        12.566
 (dLV/dLP)t      -1.00834
 (dLV/dLT)p        1.0971
 Cp, KJ/(KG)(K)    3.3309
 GAMMAs            1.2825
 SON VEL,M/SEC     1009.2

 MOLE FRACTIONS

 CH2             2.232-14
 CH3             4.8503-8
 CH2OH           1.165-13
 CH3O            2.941-15
 CH4             3.5697-3
 CH3OH           2.974-10
 *CO             3.8286-1
 *CO2            1.3819-3
 COOH            8.208-13
 C2H2,acetylene  1.5588-7
 C2H2,vinylidene 2.242-14
 CH2CO,ketene    1.6432-8
 O(CH)2O         1.147-15
 C2H3,vinyl      9.344-13
 CH3CO,acetyl    5.986-13
 C2H4            4.9628-7
 C2H4O,ethylen-o 1.481-16
 CH3CHO,ethanal  1.173-10
 CH3COOH         1.549-13
 C2H5            4.889-12
 C2H6            2.4008-8
 C2H5OH          2.433-14
 C2O             4.032-16
 C3H3,2-propynl  5.271-13
 C3H4,allene     1.247-11
 C3H4,propyne    3.939-11
 C3H4,cyclo-     2.590-15
 C3H5,allyl      2.261-13
 C3H6,propylene  6.319-11
 C3H6,cyclo-     6.496-14
 C3H6O,acetone   1.154-14
 C3H6O,propanal  2.017-15
 C3H7,i-propyl   1.218-16
 C3H8            5.250-13
 C3O2            4.077-13
 C4H2,butadiyne  1.585-14
 C4H6,butadiene  5.600-14
 C4H6,1butyne    9.165-16
 C4H6,2butyne    1.676-15
 C4H8,1-butene   1.295-15
 C4H8,cis2-buten 7.596-16
 C4H8,tr2-butene 8.593-16
 C4H8,isobutene  1.142-15
 C5H6,1,3cyclo-  7.232-16
 C6H6            2.275-14
 *H              3.8834-7
 HCO             7.809-10
 HCCO            2.258-14
 *H2             5.6513-1
 HCHO,formaldehy 1.0975-7
 HCOOH           8.702-10
 H2O             3.2352-3
 *OH             2.864-11
 C(gr)           4.3820-2

  * THERMODYNAMIC PROPERTIES FITTED TO 20000.K









         THERMODYNAMIC EQUILIBRIUM COMBUSTION PROPERTIES AT ASSIGNED

                                   PRESSURES

 CASE =                

             REACTANT                       MOLES         ENERGY      TEMP
                                                         KJ/KG-MOL      K
 FUEL        C3H8                         1.0000000   -104543.521    300.000
 OXIDANT     O2                           5.0000000        54.358    300.000

 O/F=    0.95483  %FUEL= 51.155425  R,EQ.RATIO= 3.800000  PHI,EQ.RATIO= 3.800000

 THERMODYNAMIC PROPERTIES

 P, BAR            1.0000
 T, K             1231.52
 RHO, KG/CU M    1.2830-1
 H, KJ/KG        -1211.98
 U, KJ/KG        -1991.41
 G, KJ/KG        -20748.8
 S, KJ/(KG)(K)    15.8640

 M, (1/n)          13.137
 MW, MOL WT        12.419
 (dLV/dLP)t      -1.01035
 (dLV/dLT)p        1.1237
 Cp, KJ/(KG)(K)    3.5819
 GAMMAs            1.2703
 SON VEL,M/SEC      995.0

 MOLE FRACTIONS

 CH2             1.098-14
 CH3             3.7801-8
 CH2OH           9.793-14
 CH3O            2.316-15
 CH4             4.2412-3
 CH3OH           3.563-10
 *CO             3.7148-1
 *CO2            1.7921-3
 COOH            7.712-13
 C2H2,acetylene  1.0308-7
 C2H2,vinylidene 1.060-14
 CH2CO,ketene    1.4485-8
 O(CH)2O         1.079-15
 C2H3,vinyl      5.523-13
 CH3CO,acetyl    4.955-13
 C2H4            4.6713-7
 C2H4O,ethylen-o 1.346-16
 CH3CHO,ethanal  1.315-10
 CH3COOH         2.234-13
 C2H5            4.116-12
 C2H6            2.9664-8
 C2H5OH          3.149-14
 C2O             1.860-16
 C3H3,2-propynl  2.910-13
 C3H4,allene     9.051-12
 C3H4,propyne    2.893-11
 C3H4,cyclo-     1.607-15
 C3H5,allyl      1.735-13
 C3H6,propylene  6.436-11
 C3H6,cyclo-     6.217-14
 C3H6O,acetone   1.451-14
 C3H6O,propanal  2.373-15
 C3H7,i-propyl   1.101-16
 C3H8            6.852-13
 C3O2            3.029-13
 C4H2,butadiyne  6.930-15
 C4H6,butadiene  4.760-14
 C4H6,1butyne    7.101-16
 C4H6,2butyne    1.356-15
 C4H8,1-butene   1.394-15
 C4H8,cis2-buten 8.336-16
 C4H8,tr2-butene 9.441-16
 C4H8,isobutene  1.268-15
 C5H6,1,3cyclo-  5.944-16
 C6H6            2.063-14
 *H              2.5574-7
 HCO             5.775-10
 HCCO            1.297-14
 *H2             5.6373-1
 HCHO,formaldehy 1.0854-7
 HCOOH           1.1131-9
 H2O             4.0639-3
 *OH             2.120-11
 C(gr)           5.4692-2

  * THERMODYNAMIC PROPERTIES FITTED TO 20000.K









         THERMODYNAMIC EQUILIBRIUM COMBUSTION PROPERTIES AT ASSIGNED

                                   PRESSURES

 CASE =                

             REACTANT                       MOLES         ENERGY      TEMP
                                                         KJ/KG-MOL      K
 FUEL        C3H8                         1.0000000   -104543.521    300.000
 OXIDANT     O2                           5.0000000        54.358    300.000

 O/F=    0.93034  %FUEL= 51.804234  R,EQ.RATIO= 3.900000  PHI,EQ.RATIO= 3.900000

 THERMODYNAMIC PROPERTIES

 P, BAR            1.0000
 T, K             1210.33
 RHO, KG/CU M    1.3055-1
 H, KJ/KG        -1227.38
 U, KJ/KG        -1993.36
 G, KJ/KG        -20383.1
 S, KJ/(KG)(K)    15.8269

 M, (1/n)          13.138
 MW, MOL WT        12.281
 (dLV/dLP)t      -1.01262
 (dLV/dLT)p        1.1546
 Cp, KJ/(KG)(K)    3.8770
 GAMMAs            1.2579
 SON VEL,M/SEC      981.6

 MOLE FRACTIONS

 CH2             5.672-15
 CH3             2.9953-8
 CH2OH           8.313-14
 CH3O            1.851-15
 CH4             4.9765-3
 CH3OH           4.208-10
 *CO             3.6038-1
 *CO2            2.2746-3
 COOH            7.251-13
 C2H2,acetylene  7.0101-8
 C2H2,vinylidene 5.273-15
 CH2CO,ketene    1.2853-8
 O(CH)2O         1.016-15
 C2H3,vinyl      3.383-13
 CH3CO,acetyl    4.147-13
 C2H4            4.4126-7
 C2H4O,ethylen-o 1.229-16
 CH3CHO,ethanal  1.459-10
 CH3COOH         3.131-13
 C2H5            3.505-12
 C2H6            3.6101-8
 C2H5OH          3.995-14
 C3H3,2-propynl  1.673-13
 C3H4,allene     6.710-12
 C3H4,propyne    2.170-11
 C3H4,cyclo-     1.030-15
 C3H5,allyl      1.356-13
 C3H6,propylene  6.544-11
 C3H6,cyclo-     5.967-14
 C3H6O,acetone   1.792-14
 C3H6O,propanal  2.754-15
 C3H7,i-propyl   1.002-16
 C3H8            8.775-13
 C3O2            2.289-13
 C4H2,butadiyne  3.206-15
 C4H6,butadiene  4.089-14
 C4H6,1butyne    5.597-16
 C4H6,2butyne    1.112-15
 C4H8,1-butene   1.492-15
 C4H8,cis2-buten 9.085-16
 C4H8,tr2-butene 1.030-15
 C4H8,isobutene  1.396-15
 C5H6,1,3cyclo-  4.950-16
 C6H6            1.882-14
 *H              1.7330-7
 HCO             4.351-10
 HCCO            7.729-15
 *H2             5.6215-1
 HCHO,formaldehy 1.0720-7
 HCOOH           1.3953-9
 H2O             5.0142-3
 *OH             1.600-11
 C(gr)           6.5202-2

  * THERMODYNAMIC PROPERTIES FITTED TO 20000.K









         THERMODYNAMIC EQUILIBRIUM COMBUSTION PROPERTIES AT ASSIGNED

                                   PRESSURES

 CASE =                

             REACTANT                       MOLES         ENERGY      TEMP
                                                         KJ/KG-MOL      K
 FUEL        C3H8                         1.0000000   -104543.521    300.000
 OXIDANT     O2                           5.0000000        54.358    300.000

 O/F=    0.90709  %FUEL= 52.436032  R,EQ.RATIO= 4.000000  PHI,EQ.RATIO= 4.000000

 THERMODYNAMIC PROPERTIES

 P, BAR            1.0000
 T, K             1191.38
 RHO, KG/CU M    1.3268-1
 H, KJ/KG        -1242.36
 U, KJ/KG        -1996.07
 G, KJ/KG        -20053.9
 S, KJ/(KG)(K)    15.7897

 M, (1/n)          13.143
 MW, MOL WT        12.152
 (dLV/dLP)t      -1.01512
 (dLV/dLT)p        1.1895
 Cp, KJ/(KG)(K)    4.2137
 GAMMAs            1.2458
 SON VEL,M/SEC      969.0

 MOLE FRACTIONS

 CH2             3.078-15
 CH3             2.4141-8
 CH2OH           7.128-14
 CH3O            1.502-15
 CH4             5.7663-3
 CH3OH           4.896-10
 *CO             3.4954-1
 *CO2            2.8236-3
 COOH            6.822-13
 C2H2,acetylene  4.9055-8
 C2H2,vinylidene 2.763-15
 CH2CO,ketene    1.1482-8
 O(CH)2O         9.573-16
 C2H3,vinyl      2.149-13
 CH3CO,acetyl    3.510-13
 C2H4            4.1838-7
 C2H4O,ethylen-o 1.128-16
 CH3CHO,ethanal  1.603-10
 CH3COOH         4.261-13
 C2H5            3.020-12
 C2H6            4.3267-8
 C2H5OH          4.969-14
 C3H3,2-propynl  1.002-13
 C3H4,allene     5.087-12
 C3H4,propyne    1.662-11
 C3H4,cyclo-     6.827-16
 C3H5,allyl      1.079-13
 C3H6,propylene  6.642-11
 C3H6,cyclo-     5.742-14
 C3H6O,acetone   2.174-14
 C3H6O,propanal  3.154-15
 C3H8            1.103-12
 C3O2            1.759-13
 C4H2,butadiyne  1.572-15
 C4H6,butadiene  3.553-14
 C4H6,1butyne    4.490-16
 C4H6,2butyne    9.260-16
 C4H8,1-butene   1.589-15
 C4H8,cis2-buten 9.834-16
 C4H8,tr2-butene 1.116-15
 C4H8,isobutene  1.526-15
 C5H6,1,3cyclo-  4.179-16
 C6H6            1.729-14
 *H              1.2091-7
 HCO             3.341-10
 HCCO            4.777-15
 *H2             5.6041-1
 HCHO,formaldehy 1.0573-7
 HCOOH           1.7129-9
 H2O             6.0746-3
 *OH             1.230-11
 C(gr)           7.5383-2

  * THERMODYNAMIC PROPERTIES FITTED TO 20000.K



