
 *******************************************************************************

         NASA-GLENN CHEMICAL EQUILIBRIUM PROGRAM CEA2, MAY 21, 2004
                   BY  BONNIE MCBRIDE AND SANFORD GORDON
      REFS: NASA RP-1311, PART I, 1994 AND NASA RP-1311, PART II, 1996

 *******************************************************************************



 problem    phi,eq.ratio=0.5,0.6,0.7,0.8,0.9,1,1.1,1.2,1.3,1.4,1.5,1.6,1.7,1.8,1.
 9,2,
     hp   p,bar=1,  t,k=3800
 react
   fuel=C3H8 moles=1  t,k=300
   oxid=O2 moles=5  t,k=300
   oxid=N2 moles=18.8095  t,k=300
 output  short   trace=1e-16
 end




         THERMODYNAMIC EQUILIBRIUM COMBUSTION PROPERTIES AT ASSIGNED

                                   PRESSURES

 CASE =                

             REACTANT                       MOLES         ENERGY      TEMP
                                                         KJ/KG-MOL      K
 FUEL        C3H8                         1.0000000   -104543.521    300.000
 OXIDANT     O2                           5.0000000        54.358    300.000
 OXIDANT     N2                          18.8095000        53.881    300.000

 O/F=   31.15557  %FUEL=  3.109881  R,EQ.RATIO= 0.500000  PHI,EQ.RATIO= 0.500000

 THERMODYNAMIC PROPERTIES

 P, BAR            1.0000
 T, K             1508.36
 RHO, KG/CU M    2.2785-1
 H, KJ/KG         -71.917
 U, KJ/KG         -510.80
 G, KJ/KG        -13495.2
 S, KJ/(KG)(K)     8.8993

 M, (1/n)          28.576
 (dLV/dLP)t      -1.00001
 (dLV/dLT)p        1.0003
 Cp, KJ/(KG)(K)    1.3287
 GAMMAs            1.2806
 SON VEL,M/SEC      749.7

 MOLE FRACTIONS

 *CO             1.0572-6
 *CO2            6.0459-2
 COOH            5.988-13
 *H              1.4273-8
 HNCO            4.219-16
 HNO             1.868-10
 HNO2            3.2273-8
 HNO3            1.745-11
 HO2             1.1140-7
 *H2             5.3714-7
 HCOOH           4.292-14
 H2O             8.0575-2
 H2O2            5.6127-9
 *N              6.540-14
 *NH             3.059-15
 NH2             1.483-15
 NH3             2.081-14
 *NO             8.6368-4
 NO2             3.1352-6
 NO3             1.324-12
 *N2             7.5771-1
 N2O             5.1934-8
 N2O3            9.426-15
 *O              1.4378-6
 *OH             7.4029-5
 *O2             1.0031-1
 O3              1.073-10

  * THERMODYNAMIC PROPERTIES FITTED TO 20000.K









         THERMODYNAMIC EQUILIBRIUM COMBUSTION PROPERTIES AT ASSIGNED

                                   PRESSURES

 CASE =                

             REACTANT                       MOLES         ENERGY      TEMP
                                                         KJ/KG-MOL      K
 FUEL        C3H8                         1.0000000   -104543.521    300.000
 OXIDANT     O2                           5.0000000        54.358    300.000
 OXIDANT     N2                          18.8095000        53.881    300.000

 O/F=   25.96297  %FUEL=  3.708790  R,EQ.RATIO= 0.600000  PHI,EQ.RATIO= 0.600000

 THERMODYNAMIC PROPERTIES

 P, BAR            1.0000
 T, K             1700.13
 RHO, KG/CU M    2.0177-1
 H, KJ/KG         -86.128
 U, KJ/KG         -581.75
 G, KJ/KG        -15552.2
 S, KJ/(KG)(K)     9.0970

 M, (1/n)          28.521
 (dLV/dLP)t      -1.00003
 (dLV/dLT)p        1.0013
 Cp, KJ/(KG)(K)    1.3893
 GAMMAs            1.2664
 SON VEL,M/SEC      792.2

 MOLE FRACTIONS

 *CO             1.7576-5
 *CO2            7.1948-2
 COOH            1.260-11
 *H              3.8658-7
 HCO             5.317-15
 HNCO            2.353-14
 HNO             1.4381-9
 HNO2            4.5122-8
 HNO3            1.362-11
 HO2             3.3609-7
 *H2             6.8473-6
 HCOOH           7.469-13
 H2O             9.5785-2
 H2O2            1.5755-8
 *N              4.829-12
 NCO             4.499-16
 *NH             2.696-13
 NH2             9.834-14
 NH3             5.687-13
 NH2OH           2.268-16
 *NO             1.7381-3
 NO2             3.3630-6
 NO3             1.858-12
 *N2             7.5115-1
 N2O             9.9424-8
 N2O3            1.564-14
 *O              1.2579-5
 *OH             3.2288-4
 *O2             7.9014-2
 O3              2.771-10

  * THERMODYNAMIC PROPERTIES FITTED TO 20000.K









         THERMODYNAMIC EQUILIBRIUM COMBUSTION PROPERTIES AT ASSIGNED

                                   PRESSURES

 CASE =                

             REACTANT                       MOLES         ENERGY      TEMP
                                                         KJ/KG-MOL      K
 FUEL        C3H8                         1.0000000   -104543.521    300.000
 OXIDANT     O2                           5.0000000        54.358    300.000
 OXIDANT     N2                          18.8095000        53.881    300.000

 O/F=   22.25398  %FUEL=  4.300340  R,EQ.RATIO= 0.700000  PHI,EQ.RATIO= 0.700000

 THERMODYNAMIC PROPERTIES

 P, BAR            1.0000
 T, K             1878.49
 RHO, KG/CU M    1.8223-1
 H, KJ/KG         -100.16
 U, KJ/KG         -648.92
 G, KJ/KG        -17519.2
 S, KJ/(KG)(K)     9.2729

 M, (1/n)          28.462
 (dLV/dLP)t      -1.00013
 (dLV/dLT)p        1.0048
 Cp, KJ/(KG)(K)    1.4686
 GAMMAs            1.2511
 SON VEL,M/SEC      828.6

 MOLE FRACTIONS

 *CO             1.5444-4
 *CO2            8.3117-2
 COOH            1.297-10
 *H              4.7588-6
 HCN             8.369-16
 HCO             3.472-13
 HNCO            5.349-13
 HNO             6.4768-9
 HNO2            5.3204-8
 HNO3            9.787-12
 HO2             7.0035-7
 *H2             4.9778-5
 HCHO,formaldehy 3.215-15
 HCOOH           7.021-12
 H2O             1.1050-1
 H2O2            3.2471-8
 *N              1.203-10
 NCO             2.105-14
 *NH             7.962-12
 NH2             2.448-12
 NH3             7.619-12
 NH2OH           2.679-15
 *NO             2.7398-3
 NO2             3.1114-6
 NO3             1.978-12
 *N2             7.4448-1
 N2O             1.5198-7
 N2O3            1.890-14
 N3              2.216-16
 *O              5.9663-5
 *OH             9.4480-4
 *O2             5.7943-2
 O3              4.649-10

  * THERMODYNAMIC PROPERTIES FITTED TO 20000.K









         THERMODYNAMIC EQUILIBRIUM COMBUSTION PROPERTIES AT ASSIGNED

                                   PRESSURES

 CASE =                

             REACTANT                       MOLES         ENERGY      TEMP
                                                         KJ/KG-MOL      K
 FUEL        C3H8                         1.0000000   -104543.521    300.000
 OXIDANT     O2                           5.0000000        54.358    300.000
 OXIDANT     N2                          18.8095000        53.881    300.000

 O/F=   19.47223  %FUEL=  4.884666  R,EQ.RATIO= 0.800000  PHI,EQ.RATIO= 0.800000

 THERMODYNAMIC PROPERTIES

 P, BAR            1.0000
 T, K             2040.77
 RHO, KG/CU M    1.6730-1
 H, KJ/KG         -114.03
 U, KJ/KG         -711.74
 G, KJ/KG        -19361.1
 S, KJ/(KG)(K)     9.4313

 M, (1/n)          28.388
 (dLV/dLP)t      -1.00047
 (dLV/dLT)p        1.0157
 Cp, KJ/(KG)(K)    1.6060
 GAMMAs            1.2310
 SON VEL,M/SEC      857.8

 MOLE FRACTIONS

 *CN             1.610-16
 *CO             8.8881-4
 *CO2            9.3452-2
 COOH            8.099-10
 *H              3.3856-5
 HCN             4.715-14
 HCO             9.679-12
 HNC             2.563-15
 HNCO            6.716-12
 HNO             1.9489-8
 HNO2            5.2410-8
 HNO3            6.016-12
 HO2             1.0594-6
 *H2             2.5042-4
 HCHO,formaldehy 9.178-14
 HCOOH           4.354-11
 H2O             1.2450-1
 H2O2            5.1567-8
 *N              1.3782-9
 NCO             4.322-13
 *NH             1.095-10
 NH2             3.128-11
 NH3             6.447-11
 NH2OH           1.879-14
 *NO             3.4972-3
 NO2             2.4060-6
 NO3             1.547-12
 *N2             7.3762-1
 N2H2            7.060-16
 N2O             1.9033-7
 N2O3            1.627-14
 N3              2.079-15
 N3H             2.451-16
 *O              1.7608-4
 *OH             2.0388-3
 *O2             3.7537-2
 O3              5.142-10

  * THERMODYNAMIC PROPERTIES FITTED TO 20000.K









         THERMODYNAMIC EQUILIBRIUM COMBUSTION PROPERTIES AT ASSIGNED

                                   PRESSURES

 CASE =                

             REACTANT                       MOLES         ENERGY      TEMP
                                                         KJ/KG-MOL      K
 FUEL        C3H8                         1.0000000   -104543.521    300.000
 OXIDANT     O2                           5.0000000        54.358    300.000
 OXIDANT     N2                          18.8095000        53.881    300.000

 O/F=   17.30865  %FUEL=  5.461899  R,EQ.RATIO= 0.900000  PHI,EQ.RATIO= 0.900000

 THERMODYNAMIC PROPERTIES

 P, BAR            1.0000
 T, K             2177.57
 RHO, KG/CU M    1.5616-1
 H, KJ/KG         -127.72
 U, KJ/KG         -768.09
 G, KJ/KG        -20977.9
 S, KJ/(KG)(K)     9.5750

 M, (1/n)          28.274
 (dLV/dLP)t      -1.00149
 (dLV/dLT)p        1.0456
 Cp, KJ/(KG)(K)    1.8907
 GAMMAs            1.2027
 SON VEL,M/SEC      877.6

 MOLE FRACTIONS

 *CN             7.330-15
 *CO             3.7666-3
 *CO2            1.0130-1
 COOH            3.3610-9
 *H              1.5551-4
 HCN             1.384-12
 HCO             1.423-10
 HNC             9.469-14
 HNCO            5.532-11
 HNO             4.0064-8
 HNO2            3.9932-8
 HNO3            2.725-12
 HO2             1.1020-6
 *H2             9.8179-4
 HCHO,formaldehy 1.514-12
 HCOOH           1.986-10
 H2O             1.3738-1
 H2O2            6.1184-8
 *N              8.1167-9
 NCO             4.626-12
 *NH             8.093-10
 NH2             2.414-10
 NH3             4.059-10
 NH2OH           8.673-14
 *NO             3.4860-3
 NO2             1.3949-6
 NO3             7.577-13
 *N2             7.3018-1
 N2H2            6.070-15
 N2O             1.8747-7
 N2O3            8.544-15
 N3              1.057-14
 N3H             1.445-15
 *O              3.2380-4
 *OH             3.2800-3
 *O2             1.9142-2
 O3              3.256-10

  * THERMODYNAMIC PROPERTIES FITTED TO 20000.K









         THERMODYNAMIC EQUILIBRIUM COMBUSTION PROPERTIES AT ASSIGNED

                                   PRESSURES

 CASE =                

             REACTANT                       MOLES         ENERGY      TEMP
                                                         KJ/KG-MOL      K
 FUEL        C3H8                         1.0000000   -104543.521    300.000
 OXIDANT     O2                           5.0000000        54.358    300.000
 OXIDANT     N2                          18.8095000        53.881    300.000

 O/F=   15.57778  %FUEL=  6.032169  R,EQ.RATIO= 1.000000  PHI,EQ.RATIO= 1.000000

 THERMODYNAMIC PROPERTIES

 P, BAR            1.0000
 T, K             2264.71
 RHO, KG/CU M    1.4902-1
 H, KJ/KG         -141.25
 U, KJ/KG         -812.30
 G, KJ/KG        -22121.3
 S, KJ/(KG)(K)     9.7054

 M, (1/n)          28.061
 (dLV/dLP)t      -1.00303
 (dLV/dLT)p        1.0897
 Cp, KJ/(KG)(K)    2.2802
 GAMMAs            1.1782
 SON VEL,M/SEC      889.2

 MOLE FRACTIONS

 *CN             1.418-13
 *CO             1.2488-2
 *CO2            1.0267-1
 COOH            9.0987-9
 *H              4.6149-4
 HCN             2.573-11
 HCO             1.1909-9
 HNC             2.009-12
 HNCO            3.312-10
 HNO             4.9937-8
 HNO2            1.8787-8
 HNO3            6.359-13
 HO2             6.2154-7
 *H2             3.2851-3
 HCHO,formaldehy 1.674-11
 HCOOH           7.027-10
 H2O             1.4825-1
 H2O2            4.6001-8
 *N              2.2396-8
 NCO             2.605-11
 *NH             3.1429-9
 NH2             1.1877-9
 NH3             2.1969-9
 NH2OH           2.629-13
 *NO             2.3156-3
 NO2             4.5367-7
 NO3             1.495-13
 *N2             7.2086-1
 N2H2            3.177-14
 N2O             1.2344-7
 N2O3            1.749-15
 N3              2.663-14
 N3H             4.902-15
 *O              3.0691-4
 *OH             3.5556-3
 *O2             5.8006-3
 O3              7.487-11

  * THERMODYNAMIC PROPERTIES FITTED TO 20000.K









         THERMODYNAMIC EQUILIBRIUM COMBUSTION PROPERTIES AT ASSIGNED

                                   PRESSURES

 CASE =                

             REACTANT                       MOLES         ENERGY      TEMP
                                                         KJ/KG-MOL      K
 FUEL        C3H8                         1.0000000   -104543.521    300.000
 OXIDANT     O2                           5.0000000        54.358    300.000
 OXIDANT     N2                          18.8095000        53.881    300.000

 O/F=   14.16162  %FUEL=  6.595600  R,EQ.RATIO= 1.100000  PHI,EQ.RATIO= 1.100000

 THERMODYNAMIC PROPERTIES

 P, BAR            1.0000
 T, K             2262.80
 RHO, KG/CU M    1.4705-1
 H, KJ/KG         -154.62
 U, KJ/KG         -834.66
 G, KJ/KG        -22381.9
 S, KJ/(KG)(K)     9.8229

 M, (1/n)          27.666
 (dLV/dLP)t      -1.00163
 (dLV/dLT)p        1.0487
 Cp, KJ/(KG)(K)    1.9399
 GAMMAs            1.2030
 SON VEL,M/SEC      904.5

 MOLE FRACTIONS

 *C              4.055-16
 CH2             4.103-16
 CH3             2.936-15
 CH2OH           7.775-16
 CH3O            1.012-16
 CH4             1.914-15
 *CN             9.591-13
 *CO             3.1236-2
 *CO2            9.2909-2
 COOH            1.3875-8
 *H              7.7594-4
 HCN             2.997-10
 HCO             5.0258-9
 HNC             2.333-11
 HNCO            1.3941-9
 HNO             2.9881-8
 HNO2            4.0489-9
 HNO3            4.908-14
 HO2             1.3474-7
 *H2             9.4790-3
 HCHO,formaldehy 1.209-10
 HCOOH           1.8331-9
 H2O             1.5458-1
 H2O2            1.7054-8
 *N              2.1710-8
 NCO             6.381-11
 *NH             5.2038-9
 NH2             3.3664-9
 NH3             1.0691-8
 NH2OH           4.570-13
 *NO             8.1615-4
 NO2             5.7275-8
 NO3             6.732-15
 *N2             7.0720-1
 N2H2            8.905-14
 N2O             4.3095-8
 N3              2.537-14
 N3H             7.983-15
 *O              1.0841-4
 *OH             2.1547-3
 *O2             7.4057-4
 O3              3.392-12

  * THERMODYNAMIC PROPERTIES FITTED TO 20000.K









         THERMODYNAMIC EQUILIBRIUM COMBUSTION PROPERTIES AT ASSIGNED

                                   PRESSURES

 CASE =                

             REACTANT                       MOLES         ENERGY      TEMP
                                                         KJ/KG-MOL      K
 FUEL        C3H8                         1.0000000   -104543.521    300.000
 OXIDANT     O2                           5.0000000        54.358    300.000
 OXIDANT     N2                          18.8095000        53.881    300.000

 O/F=   12.98149  %FUEL=  7.152315  R,EQ.RATIO= 1.200000  PHI,EQ.RATIO= 1.200000

 THERMODYNAMIC PROPERTIES

 P, BAR            1.0000
 T, K             2198.71
 RHO, KG/CU M    1.4857-1
 H, KJ/KG         -167.83
 U, KJ/KG         -840.91
 G, KJ/KG        -21997.7
 S, KJ/(KG)(K)     9.9285

 M, (1/n)          27.161
 (dLV/dLP)t      -1.00059
 (dLV/dLT)p        1.0174
 Cp, KJ/(KG)(K)    1.6704
 GAMMAs            1.2332
 SON VEL,M/SEC      911.1

 MOLE FRACTIONS

 *C              5.973-16
 *CH             2.321-16
 CH2             2.164-15
 CH3             3.309-14
 CH2OH           3.617-15
 CH3O            4.408-16
 CH4             4.415-14
 CH3OH           7.026-16
 *CN             2.169-12
 *CO             5.3738-2
 *CO2            7.8425-2
 COOH            1.2962-8
 CH2CO,ketene    3.455-16
 C2O             3.900-16
 *H              7.9526-4
 HCN             1.5796-9
 HCO             9.9699-9
 HNC             1.117-10
 HNCO            3.4718-9
 HNO             1.1723-8
 HNO2            6.685-10
 HNO3            2.794-15
 HO2             1.9820-8
 *H2             2.0163-2
 HCHO,formaldehy 4.432-10
 HCOOH           3.1910-9
 H2O             1.5518-1
 H2O2            4.6076-9
 *N              1.0187-8
 NCO             7.336-11
 *NH             4.3113-9
 NH2             5.3163-9
 NH3             3.5676-8
 NH2OH           4.812-13
 *NO             2.2369-4
 NO2             5.4642-9
 NO3             1.912-16
 *N2             6.9042-1
 N2H2            1.322-13
 N2O             1.1690-8
 N3              1.230-14
 N3H             7.059-15
 *O              2.3314-5
 *OH             9.5179-4
 *O2             7.5643-5
 O3              8.762-14

  * THERMODYNAMIC PROPERTIES FITTED TO 20000.K









         THERMODYNAMIC EQUILIBRIUM COMBUSTION PROPERTIES AT ASSIGNED

                                   PRESSURES

 CASE =                

             REACTANT                       MOLES         ENERGY      TEMP
                                                         KJ/KG-MOL      K
 FUEL        C3H8                         1.0000000   -104543.521    300.000
 OXIDANT     O2                           5.0000000        54.358    300.000
 OXIDANT     N2                          18.8095000        53.881    300.000

 O/F=   11.98291  %FUEL=  7.702433  R,EQ.RATIO= 1.300000  PHI,EQ.RATIO= 1.300000

 THERMODYNAMIC PROPERTIES

 P, BAR            1.0000
 T, K             2122.55
 RHO, KG/CU M    1.5101-1
 H, KJ/KG         -180.88
 U, KJ/KG         -843.08
 G, KJ/KG        -21459.0
 S, KJ/(KG)(K)    10.0248

 M, (1/n)          26.651
 (dLV/dLP)t      -1.00030
 (dLV/dLT)p        1.0087
 Cp, KJ/(KG)(K)    1.6005
 GAMMAs            1.2469
 SON VEL,M/SEC      908.7

 MOLE FRACTIONS

 *C              4.445-16
 *CH             2.853-16
 CH2             5.215-15
 CH3             1.675-13
 CH2OH           9.031-15
 CH3O            1.013-15
 CH4             4.449-13
 CH3OH           3.278-15
 *CN             2.784-12
 *CO             7.3626-2
 *CO2            6.6030-2
 COOH            9.9565-9
 CH2CO,ketene    2.138-15
 OCCN            1.207-16
 C2O             7.308-16
 *H              6.5855-4
 HCN             4.7571-9
 HCO             1.3130-8
 HCCO            1.002-16
 HNC             2.978-10
 HNCO            6.1201-9
 HNO             4.3682-9
 HNO2            1.259-10
 HNO3            2.067-16
 HO2             3.2132-9
 *H2             3.3767-2
 HCHO,formaldehy 1.0203-9
 HCOOH           4.3305-9
 H2O             1.5191-1
 H2O2            1.2949-9
 *N              3.9186-9
 NCO             6.055-11
 *NH             2.7335-9
 NH2             6.1241-9
 NH3             8.5084-8
 NH2OH           4.034-13
 *NO             6.5872-5
 NO2             6.399-10
 *N2             6.7352-1
 N2H2            1.415-13
 N2O             3.4100-9
 N3              4.961-15
 N3H             4.892-15
 *O              5.0365-6
 *OH             4.1042-4
 *O2             9.6277-6
 O3              2.963-15

  * THERMODYNAMIC PROPERTIES FITTED TO 20000.K









         THERMODYNAMIC EQUILIBRIUM COMBUSTION PROPERTIES AT ASSIGNED

                                   PRESSURES

 CASE =                

             REACTANT                       MOLES         ENERGY      TEMP
                                                         KJ/KG-MOL      K
 FUEL        C3H8                         1.0000000   -104543.521    300.000
 OXIDANT     O2                           5.0000000        54.358    300.000
 OXIDANT     N2                          18.8095000        53.881    300.000

 O/F=   11.12699  %FUEL=  8.246070  R,EQ.RATIO= 1.400000  PHI,EQ.RATIO= 1.400000

 THERMODYNAMIC PROPERTIES

 P, BAR            1.0000
 T, K             2046.24
 RHO, KG/CU M    1.5375-1
 H, KJ/KG         -193.78
 U, KJ/KG         -844.18
 G, KJ/KG        -20888.8
 S, KJ/(KG)(K)    10.1137

 M, (1/n)          26.159
 (dLV/dLP)t      -1.00018
 (dLV/dLT)p        1.0051
 Cp, KJ/(KG)(K)    1.5786
 GAMMAs            1.2550
 SON VEL,M/SEC      903.5

 MOLE FRACTIONS

 *C              2.408-16
 *CH             2.428-16
 CH2             8.387-15
 CH3             5.480-13
 CH2OH           1.622-14
 CH3O            1.666-15
 CH4             2.802-12
 CH3OH           1.058-14
 *CN             2.717-12
 *CO             9.0353-2
 *CO2            5.6400-2
 COOH            7.0519-9
 C2H2,acetylene  4.588-16
 CH2CO,ketene    8.304-15
 OCCN            1.812-16
 C2O             9.365-16
 *H              4.9223-4
 HCN             1.0641-8
 HCO             1.4135-8
 HCCO            1.987-16
 HNC             5.842-10
 HNCO            9.0347-9
 HNO             1.6265-9
 HNO2            2.638-11
 HO2             5.724-10
 *H2             4.9279-2
 HCHO,formaldehy 1.8354-9
 HCOOH           5.1859-9
 H2O             1.4606-1
 H2O2            3.818-10
 *N              1.4031-9
 NCO             4.314-11
 *NH             1.5336-9
 NH2             5.9816-9
 NH3             1.6654-7
 NH2OH           3.013-13
 *NO             2.0771-5
 NO2             8.786-11
 *N2             6.5722-1
 N2H2            1.280-13
 N2O             1.0667-9
 N3              1.875-15
 N3H             3.031-15
 *O              1.1369-6
 *OH             1.7837-4
 *O2             1.4440-6
 O3              1.256-16

  * THERMODYNAMIC PROPERTIES FITTED TO 20000.K









         THERMODYNAMIC EQUILIBRIUM COMBUSTION PROPERTIES AT ASSIGNED

                                   PRESSURES

 CASE =                

             REACTANT                       MOLES         ENERGY      TEMP
                                                         KJ/KG-MOL      K
 FUEL        C3H8                         1.0000000   -104543.521    300.000
 OXIDANT     O2                           5.0000000        54.358    300.000
 OXIDANT     N2                          18.8095000        53.881    300.000

 O/F=   10.38519  %FUEL=  8.783341  R,EQ.RATIO= 1.500000  PHI,EQ.RATIO= 1.500000

 THERMODYNAMIC PROPERTIES

 P, BAR            1.0000
 T, K             1971.85
 RHO, KG/CU M    1.5668-1
 H, KJ/KG         -206.53
 U, KJ/KG         -844.77
 G, KJ/KG        -20312.0
 S, KJ/(KG)(K)    10.1963

 M, (1/n)          25.688
 (dLV/dLP)t      -1.00011
 (dLV/dLT)p        1.0031
 Cp, KJ/(KG)(K)    1.5718
 GAMMAs            1.2612
 SON VEL,M/SEC      897.2

 MOLE FRACTIONS

 *C              1.076-16
 *CH             1.653-16
 CH2             1.056-14
 CH3             1.380-12
 CH2OH           2.391-14
 CH3O            2.241-15
 CH4             1.333-11
 CH3OH           2.735-14
 *CN             2.251-12
 *CO             1.0448-1
 *CO2            4.9016-2
 COOH            4.7771-9
 C2H2,acetylene  1.802-15
 CH2CO,ketene    2.465-14
 OCCN            2.205-16
 C2O             9.642-16
 *H              3.4426-4
 HCN             1.9994-8
 HCO             1.3520-8
 HCCO            3.066-16
 HNC             9.561-10
 HNCO            1.2054-8
 HNO             6.023-10
 HNO2            5.869-12
 HO2             1.072-10
 *H2             6.5946-2
 HCHO,formaldehy 2.8562-9
 HCOOH           5.7894-9
 H2O             1.3851-1
 H2O2            1.151-10
 *N              4.782-10
 NCO             2.825-11
 *NH             7.940-10
 NH2             5.2579-9
 NH3             2.8808-7
 NH2OH           2.087-13
 *NO             6.8004-6
 NO2             1.321-11
 *N2             6.4161-1
 N2H2            1.042-13
 N2O             3.470-10
 N3              6.775-16
 N3H             1.746-15
 *O              2.6196-7
 *OH             7.7495-5
 *O2             2.3787-7

  * THERMODYNAMIC PROPERTIES FITTED TO 20000.K









         THERMODYNAMIC EQUILIBRIUM COMBUSTION PROPERTIES AT ASSIGNED

                                   PRESSURES

 CASE =                

             REACTANT                       MOLES         ENERGY      TEMP
                                                         KJ/KG-MOL      K
 FUEL        C3H8                         1.0000000   -104543.521    300.000
 OXIDANT     O2                           5.0000000        54.358    300.000
 OXIDANT     N2                          18.8095000        53.881    300.000

 O/F=    9.73612  %FUEL=  9.314356  R,EQ.RATIO= 1.600000  PHI,EQ.RATIO= 1.600000

 THERMODYNAMIC PROPERTIES

 P, BAR            1.0000
 T, K             1899.71
 RHO, KG/CU M    1.5978-1
 H, KJ/KG         -219.13
 U, KJ/KG         -844.99
 G, KJ/KG        -19735.3
 S, KJ/(KG)(K)    10.2733

 M, (1/n)          25.238
 (dLV/dLP)t      -1.00007
 (dLV/dLT)p        1.0020
 Cp, KJ/(KG)(K)    1.5714
 GAMMAs            1.2665
 SON VEL,M/SEC      890.3

 MOLE FRACTIONS

 CH2             1.125-14
 CH3             2.927-12
 CH2OH           3.087-14
 CH3O            2.635-15
 CH4             5.312-11
 CH3OH           6.138-14
 *CN             1.667-12
 *CO             1.1663-1
 *CO2            4.3303-2
 COOH            3.1383-9
 C2H2,acetylene  5.682-15
 CH2CO,ketene    6.178-14
 OCCN            2.341-16
 C2O             8.590-16
 *H              2.2873-4
 HCN             3.3600-8
 HCO             1.1943-8
 HCCO            4.023-16
 HNC             1.3909-9
 HNCO            1.5097-8
 HNO             2.198-10
 HNO2            1.340-12
 HO2             2.041-11
 *H2             8.3189-2
 HCHO,formaldehy 4.0486-9
 HCOOH           6.1898-9
 H2O             1.2992-1
 H2O2            3.476-11
 *N              1.555-10
 NCO             1.744-11
 *NH             3.855-10
 NH2             4.2803-9
 NH3             4.5892-7
 NH2OH           1.363-13
 *NO             2.2593-6
 NO2             2.075-12
 *N2             6.2670-1
 N2H2            7.852-14
 N2O             1.147-10
 N3              2.348-16
 N3H             9.498-16
 *O              6.0276-8
 *OH             3.3343-5
 *O2             4.1067-8

  * THERMODYNAMIC PROPERTIES FITTED TO 20000.K









         THERMODYNAMIC EQUILIBRIUM COMBUSTION PROPERTIES AT ASSIGNED

                                   PRESSURES

 CASE =                

             REACTANT                       MOLES         ENERGY      TEMP
                                                         KJ/KG-MOL      K
 FUEL        C3H8                         1.0000000   -104543.521    300.000
 OXIDANT     O2                           5.0000000        54.358    300.000
 OXIDANT     N2                          18.8095000        53.881    300.000

 O/F=    9.16340  %FUEL=  9.839225  R,EQ.RATIO= 1.700000  PHI,EQ.RATIO= 1.700000

 THERMODYNAMIC PROPERTIES

 P, BAR            1.0000
 T, K             1829.77
 RHO, KG/CU M    1.6306-1
 H, KJ/KG         -231.58
 U, KJ/KG         -844.86
 G, KJ/KG        -19160.8
 S, KJ/(KG)(K)    10.3451

 M, (1/n)          24.807
 (dLV/dLP)t      -1.00004
 (dLV/dLT)p        1.0012
 Cp, KJ/(KG)(K)    1.5743
 GAMMAs            1.2713
 SON VEL,M/SEC      883.0

 MOLE FRACTIONS

 CH2             1.060-14
 CH3             5.514-12
 CH2OH           3.628-14
 CH3O            2.811-15
 CH4             1.887-10
 CH3OH           1.252-13
 *CN             1.132-12
 *CO             1.2726-1
 *CO2            3.8803-2
 COOH            2.0103-9
 C2H2,acetylene  1.546-14
 CH2CO,ketene    1.386-13
 OCCN            2.257-16
 C2N2            1.330-16
 C2O             6.889-16
 *H              1.4544-4
 HCN             5.2363-8
 HCO             9.9427-9
 HCCO            4.709-16
 HNC             1.8639-9
 HNCO            1.8128-8
 HNO             7.839-11
 HNO2            3.065-13
 HO2             3.857-12
 *H2             1.0060-1
 HCHO,formaldehy 5.3844-9
 HCOOH           6.4315-9
 H2O             1.2073-1
 H2O2            1.037-11
 *N              4.818-11
 NCO             1.027-11
 *NH             1.766-10
 NH2             3.2788-9
 NH3             6.9062-7
 NH2OH           8.483-14
 *NO             7.4910-7
 NO2             3.298-13
 *N2             6.1245-1
 N2H2            5.564-14
 N2O             3.791-11
 N3H             4.916-16
 *O              1.3610-8
 *OH             1.4094-5
 *O2             7.1932-9

  * THERMODYNAMIC PROPERTIES FITTED TO 20000.K









         THERMODYNAMIC EQUILIBRIUM COMBUSTION PROPERTIES AT ASSIGNED

                                   PRESSURES

 CASE =                

             REACTANT                       MOLES         ENERGY      TEMP
                                                         KJ/KG-MOL      K
 FUEL        C3H8                         1.0000000   -104543.521    300.000
 OXIDANT     O2                           5.0000000        54.358    300.000
 OXIDANT     N2                          18.8095000        53.881    300.000

 O/F=    8.65432  %FUEL= 10.358053  R,EQ.RATIO= 1.800000  PHI,EQ.RATIO= 1.800000

 THERMODYNAMIC PROPERTIES

 P, BAR            1.0000
 T, K             1761.92
 RHO, KG/CU M    1.6653-1
 H, KJ/KG         -243.90
 U, KJ/KG         -844.40
 G, KJ/KG        -18589.4
 S, KJ/(KG)(K)    10.4122

 M, (1/n)          24.395
 (dLV/dLP)t      -1.00002
 (dLV/dLT)p        1.0007
 Cp, KJ/(KG)(K)    1.5790
 GAMMAs            1.2757
 SON VEL,M/SEC      875.3

 MOLE FRACTIONS

 CH2             9.061-15
 CH3             9.543-12
 CH2OH           3.969-14
 CH3O            2.783-15
 CH4             6.222-10
 CH3OH           2.394-13
 *CN             7.157-13
 *CO             1.3673-1
 *CO2            3.5183-2
 COOH            1.2577-9
 C2H2,acetylene  3.799-14
 CH2CO,ketene    2.882-13
 CH3CN           1.132-16
 C2H4            1.391-16
 OCCN            2.020-16
 C2N2            2.166-16
 C2O             5.085-16
 C3O2            1.106-16
 *H              8.8838-5
 HCN             7.7418-8
 HCO             7.8926-9
 HCCO            5.059-16
 HNC             2.3530-9
 HNCO            2.1139-8
 HNO             2.713-11
 HNO2            6.905-14
 HO2             7.102-13
 *H2             1.1791-1
 HCHO,formaldehy 6.8424-9
 HCOOH           6.5498-9
 H2O             1.1126-1
 H2O2            3.016-12
 *N              1.416-11
 NCO             5.801-12
 *NH             7.659-11
 NH2             2.3858-9
 NH3             9.9846-7
 NH2OH           5.052-14
 *NO             2.4474-7
 NO2             5.174-14
 *N2             5.9882-1
 N2H2            3.742-14
 N2O             1.237-11
 N3H             2.428-16
 *O              2.9740-9
 *OH             5.8130-6
 *O2             1.2480-9

  * THERMODYNAMIC PROPERTIES FITTED TO 20000.K









         THERMODYNAMIC EQUILIBRIUM COMBUSTION PROPERTIES AT ASSIGNED

                                   PRESSURES

 CASE =                

             REACTANT                       MOLES         ENERGY      TEMP
                                                         KJ/KG-MOL      K
 FUEL        C3H8                         1.0000000   -104543.521    300.000
 OXIDANT     O2                           5.0000000        54.358    300.000
 OXIDANT     N2                          18.8095000        53.881    300.000

 O/F=    8.19883  %FUEL= 10.870943  R,EQ.RATIO= 1.900000  PHI,EQ.RATIO= 1.900000

 THERMODYNAMIC PROPERTIES

 P, BAR            1.0000
 T, K             1696.02
 RHO, KG/CU M    1.7020-1
 H, KJ/KG         -256.06
 U, KJ/KG         -843.60
 G, KJ/KG        -18021.6
 S, KJ/(KG)(K)    10.4748

 M, (1/n)          24.001
 (dLV/dLP)t      -1.00002
 (dLV/dLT)p        1.0004
 Cp, KJ/(KG)(K)    1.5848
 GAMMAs            1.2800
 SON VEL,M/SEC      867.2

 MOLE FRACTIONS

 CH2             7.145-15
 CH3             1.552-11
 CH2OH           4.103-14
 CH3O            2.594-15
 CH4             1.9605-9
 CH3OH           4.375-13
 *CN             4.249-13
 *CO             1.4531-1
 *CO2            3.2205-2
 COOH            7.682-10
 C2H2,acetylene  8.699-14
 CH2CO,ketene    5.699-13
 CH3CN           4.274-16
 C2H4            5.981-16
 OCCN            1.704-16
 C2N2            3.332-16
 C2O             3.501-16
 C3O2            1.636-16
 *H              5.2209-5
 HCN             1.1026-7
 HCO             6.0140-9
 HCCO            5.082-16
 HNC             2.8395-9
 HNCO            2.4138-8
 HNO             9.045-12
 HNO2            1.510-14
 HO2             1.255-13
 *H2             1.3495-1
 HCHO,formaldehy 8.4082-9
 HCOOH           6.5711-9
 H2O             1.0171-1
 H2O2            8.473-13
 *N              3.928-12
 NCO             3.147-12
 *NH             3.144-11
 NH2             1.6584-9
 NH3             1.4030-6
 NH2OH           2.886-14
 *NO             7.7979-8
 NO2             7.862-15
 *N2             5.8578-1
 N2H2            2.402-14
 N2O             3.942-12
 N3H             1.145-16
 *O              6.214-10
 *OH             2.3251-6
 *O2             2.104-10

  * THERMODYNAMIC PROPERTIES FITTED TO 20000.K









         THERMODYNAMIC EQUILIBRIUM COMBUSTION PROPERTIES AT ASSIGNED

                                   PRESSURES

 CASE =                

             REACTANT                       MOLES         ENERGY      TEMP
                                                         KJ/KG-MOL      K
 FUEL        C3H8                         1.0000000   -104543.521    300.000
 OXIDANT     O2                           5.0000000        54.358    300.000
 OXIDANT     N2                          18.8095000        53.881    300.000

 O/F=    7.78889  %FUEL= 11.377998  R,EQ.RATIO= 2.000000  PHI,EQ.RATIO= 2.000000

 THERMODYNAMIC PROPERTIES

 P, BAR            1.0000
 T, K             1631.94
 RHO, KG/CU M    1.7411-1
 H, KJ/KG         -268.10
 U, KJ/KG         -842.46
 G, KJ/KG        -17457.4
 S, KJ/(KG)(K)    10.5330

 M, (1/n)          23.624
 (dLV/dLP)t      -1.00001
 (dLV/dLT)p        1.0003
 Cp, KJ/(KG)(K)    1.5912
 GAMMAs            1.2842
 SON VEL,M/SEC      858.8

 MOLE FRACTIONS

 CH2             5.253-15
 CH3             2.409-11
 CH2OH           4.047-14
 CH3O            2.299-15
 CH4             6.0278-9
 CH3OH           7.756-13
 *CN             2.380-13
 *CO             1.5317-1
 *CO2            2.9698-2
 COOH            4.575-10
 C2H2,acetylene  1.898-13
 CH2CO,ketene    1.089-12
 CH3CN           1.558-15
 C2H4            2.465-15
 CH3CHO,ethanal  1.244-16
 OCCN            1.367-16
 C2N2            4.921-16
 C2O             2.267-16
 C3O2            2.340-16
 *H              2.9529-5
 HCN             1.5293-7
 HCO             4.4158-9
 HCCO            4.831-16
 HNC             3.3091-9
 HNCO            2.7140-8
 HNO             2.887-12
 HNO2            3.163-15
 HO2             2.099-14
 *H2             1.5160-1
 HCHO,formaldehy 1.0073-8
 HCOOH           6.5144-9
 H2O             9.2215-2
 H2O2            2.278-13
 *N              1.024-12
 NCO             1.641-12
 *NH             1.220-11
 NH2             1.1047-9
 NH3             1.9324-6
 NH2OH           1.582-14
 *NO             2.4013-8
 NO2             1.138-15
 *N2             5.7329-1
 N2H2            1.476-14
 N2O             1.217-12
 *O              1.228-10
 *OH             8.9674-7
 *O2             3.394-11

  * THERMODYNAMIC PROPERTIES FITTED TO 20000.K



