
 *******************************************************************************

         NASA-GLENN CHEMICAL EQUILIBRIUM PROGRAM CEA2, MAY 21, 2004
                   BY  BONNIE MCBRIDE AND SANFORD GORDON
      REFS: NASA RP-1311, PART I, 1994 AND NASA RP-1311, PART II, 1996

 *******************************************************************************



 problem    phi,eq.ratio=3.7,3.8,3.9,4,
       hp   p,bar=1,  t,k=3800
 react
   fuel=C8H18,isooctane moles=1 t,k=300
   oxid=O2 moles=12.5 t,k=300
   oxid=N2 moles=47.0238 t,k=300
 output
      trace=1e-16 siunits short
 end




         THERMODYNAMIC EQUILIBRIUM COMBUSTION PROPERTIES AT ASSIGNED

                                   PRESSURES

 CASE =                

             REACTANT                       MOLES         ENERGY      TEMP
                                                         KJ/KG-MOL      K
 FUEL        C8H18,isooctane              1.0000000   -223660.458    300.000
 OXIDANT     O2                          12.5000000        54.358    300.000
 OXIDANT     N2                          47.0238000        53.881    300.000

 O/F=    4.06317  %FUEL= 19.750464  R,EQ.RATIO= 3.700000  PHI,EQ.RATIO= 3.700000

 THERMODYNAMIC PROPERTIES

 P, BAR            1.0000
 T, K             1033.33
 RHO, KG/CU M    2.4428-1
 H, KJ/KG         -385.21
 U, KJ/KG         -794.57
 G, KJ/KG        -11425.4
 S, KJ/(KG)(K)    10.6840

 M, (1/n)          20.988
 MW, MOL WT        19.691
 (dLV/dLP)t      -1.02617
 (dLV/dLT)p        1.4210
 Cp, KJ/(KG)(K)    4.4485
 GAMMAs            1.1815
 SON VEL,M/SEC      695.5

 MOLE FRACTIONS

 CH3             1.0184-9
 CH2OH           3.667-15
 CH4             5.7290-3
 CH3OH           3.363-10
 *CO             1.9321-1
 *CO2            1.1651-2
 COOH            1.269-13
 C2H2,acetylene  7.703-10
 CH2CO,ketene    1.3038-9
 O(CH)2O         1.229-16
 C2H3,vinyl      8.837-16
 CH3CN           1.0596-8
 CH3CO,acetyl    1.599-14
 C2H4            5.8411-8
 CH3CHO,ethanal  6.288-11
 CH3COOH         9.163-13
 C2H5            1.118-13
 C2H6            2.7328-8
 C2H5OH          3.006-14
 C2N2            1.815-14
 C3H3,2-propynl  2.327-16
 C3H4,allene     7.985-14
 C3H4,propyne    2.885-13
 C3H5,allyl      1.853-15
 C3H6,propylene  8.270-12
 C3H6,cyclo-     4.268-15
 C3H6O,acetone   1.030-14
 C3H6O,propanal  8.562-16
 C3H8            5.083-13
 C3O2            6.712-15
 C4H6,butadiene  9.783-16
 C4H8,1-butene   1.449-16
 C4H8,cis2-buten 1.051-16
 C4H8,tr2-butene 1.207-16
 C4H8,isobutene  1.797-16
 C6H6            8.143-16
 *H              2.7646-9
 HCN             3.8007-6
 HCO             1.278-11
 HNC             5.6678-9
 HNCO            6.0574-8
 *H2             2.8136-1
 HCHO,formaldehy 3.1561-8
 HCOOH           2.9326-9
 H2O             1.3532-2
 NH2             7.122-13
 NH3             4.9347-5
 *NO             7.671-16
 *N2             4.3268-1
 *OH             4.795-13
 C(gr)           6.1779-2

  * THERMODYNAMIC PROPERTIES FITTED TO 20000.K









         THERMODYNAMIC EQUILIBRIUM COMBUSTION PROPERTIES AT ASSIGNED

                                   PRESSURES

 CASE =                

             REACTANT                       MOLES         ENERGY      TEMP
                                                         KJ/KG-MOL      K
 FUEL        C8H18,isooctane              1.0000000   -223660.458    300.000
 OXIDANT     O2                          12.5000000        54.358    300.000
 OXIDANT     N2                          47.0238000        53.881    300.000

 O/F=    3.95625  %FUEL= 20.176559  R,EQ.RATIO= 3.800000  PHI,EQ.RATIO= 3.800000

 THERMODYNAMIC PROPERTIES

 P, BAR            1.0000
 T, K             1028.46
 RHO, KG/CU M    2.4520-1
 H, KJ/KG         -393.57
 U, KJ/KG         -801.40
 G, KJ/KG        -11385.1
 S, KJ/(KG)(K)    10.6874

 M, (1/n)          20.967
 MW, MOL WT        19.512
 (dLV/dLP)t      -1.02754
 (dLV/dLT)p        1.4438
 Cp, KJ/(KG)(K)    4.6220
 GAMMAs            1.1783
 SON VEL,M/SEC      693.2

 MOLE FRACTIONS

 CH3             9.577-10
 CH2OH           3.481-15
 CH4             6.1555-3
 CH3OH           3.574-10
 *CO             1.8792-1
 *CO2            1.2207-2
 COOH            1.215-13
 C2H2,acetylene  6.853-10
 CH2CO,ketene    1.2479-9
 O(CH)2O         1.185-16
 C2H3,vinyl      7.646-16
 CH3CN           1.0394-8
 CH3CO,acetyl    1.511-14
 C2H4            5.8502-8
 CH3CHO,ethanal  6.550-11
 CH3COOH         1.017-12
 C2H5            1.090-13
 C2H6            3.0082-8
 C2H5OH          3.311-14
 C2N2            1.506-14
 C3H3,2-propynl  1.973-16
 C3H4,allene     7.396-14
 C3H4,propyne    2.682-13
 C3H5,allyl      1.757-15
 C3H6,propylene  8.589-12
 C3H6,cyclo-     4.353-15
 C3H6O,acetone   1.125-14
 C3H6O,propanal  9.167-16
 C3H8            5.761-13
 C3O2            5.948-15
 C4H6,butadiene  9.630-16
 C4H8,1-butene   1.550-16
 C4H8,cis2-buten 1.130-16
 C4H8,tr2-butene 1.299-16
 C4H8,isobutene  1.940-16
 C6H6            8.169-16
 *H              2.4440-9
 HCN             3.5222-6
 HCO             1.153-11
 HNC             5.0740-9
 HNCO            5.9473-8
 *H2             2.8338-1
 HCHO,formaldehy 3.1268-8
 HCOOH           3.1012-9
 H2O             1.4405-2
 NH2             6.458-13
 NH3             5.1473-5
 *NO             6.647-16
 *N2             4.2645-1
 *OH             4.330-13
 C(gr)           6.9428-2

  * THERMODYNAMIC PROPERTIES FITTED TO 20000.K









         THERMODYNAMIC EQUILIBRIUM COMBUSTION PROPERTIES AT ASSIGNED

                                   PRESSURES

 CASE =                

             REACTANT                       MOLES         ENERGY      TEMP
                                                         KJ/KG-MOL      K
 FUEL        C8H18,isooctane              1.0000000   -223660.458    300.000
 OXIDANT     O2                          12.5000000        54.358    300.000
 OXIDANT     N2                          47.0238000        53.881    300.000

 O/F=    3.85480  %FUEL= 20.598152  R,EQ.RATIO= 3.900000  PHI,EQ.RATIO= 3.900000

 THERMODYNAMIC PROPERTIES

 P, BAR            1.0000
 T, K             1023.82
 RHO, KG/CU M    2.4608-1
 H, KJ/KG         -401.83
 U, KJ/KG         -808.20
 G, KJ/KG        -11347.0
 S, KJ/(KG)(K)    10.6905

 M, (1/n)          20.948
 MW, MOL WT        19.338
 (dLV/dLP)t      -1.02888
 (dLV/dLT)p        1.4660
 Cp, KJ/(KG)(K)    4.7909
 GAMMAs            1.1753
 SON VEL,M/SEC      691.1

 MOLE FRACTIONS

 CH3             9.027-10
 CH2OH           3.308-15
 CH4             6.5933-3
 CH3OH           3.785-10
 *CO             1.8277-1
 *CO2            1.2740-2
 COOH            1.162-13
 C2H2,acetylene  6.125-10
 CH2CO,ketene    1.1952-9
 O(CH)2O         1.141-16
 C2H3,vinyl      6.654-16
 CH3CN           1.0201-8
 CH3CO,acetyl    1.431-14
 C2H4            5.8580-8
 CH3CHO,ethanal  6.805-11
 CH3COOH         1.122-12
 C2H5            1.063-13
 C2H6            3.2978-8
 C2H5OH          3.630-14
 C2N2            1.258-14
 C3H3,2-propynl  1.683-16
 C3H4,allene     6.872-14
 C3H4,propyne    2.500-13
 C3H5,allyl      1.670-15
 C3H6,propylene  8.906-12
 C3H6,cyclo-     4.435-15
 C3H6O,acetone   1.222-14
 C3H6O,propanal  9.778-16
 C3H8            6.496-13
 C3O2            5.286-15
 C4H6,butadiene  9.485-16
 C4H8,1-butene   1.653-16
 C4H8,cis2-buten 1.212-16
 C4H8,tr2-butene 1.394-16
 C4H8,isobutene  2.087-16
 C6H6            8.194-16
 *H              2.1710-9
 HCN             3.2735-6
 HCO             1.043-11
 HNC             4.5617-9
 HNCO            5.8366-8
 *H2             2.8529-1
 HCHO,formaldehy 3.0955-8
 HCOOH           3.2656-9
 H2O             1.5279-2
 NH2             5.878-13
 NH3             5.3585-5
 *NO             5.786-16
 *N2             4.2042-1
 *OH             3.921-13
 C(gr)           7.6857-2

  * THERMODYNAMIC PROPERTIES FITTED TO 20000.K









         THERMODYNAMIC EQUILIBRIUM COMBUSTION PROPERTIES AT ASSIGNED

                                   PRESSURES

 CASE =                

             REACTANT                       MOLES         ENERGY      TEMP
                                                         KJ/KG-MOL      K
 FUEL        C8H18,isooctane              1.0000000   -223660.458    300.000
 OXIDANT     O2                          12.5000000        54.358    300.000
 OXIDANT     N2                          47.0238000        53.881    300.000

 O/F=    3.75843  %FUEL= 21.015316  R,EQ.RATIO= 4.000000  PHI,EQ.RATIO= 4.000000

 THERMODYNAMIC PROPERTIES

 P, BAR            1.0000
 T, K             1019.40
 RHO, KG/CU M    2.4693-1
 H, KJ/KG         -410.00
 U, KJ/KG         -814.98
 G, KJ/KG        -11311.0
 S, KJ/(KG)(K)    10.6935

 M, (1/n)          20.929
 MW, MOL WT        19.169
 (dLV/dLP)t      -1.03019
 (dLV/dLT)p        1.4875
 Cp, KJ/(KG)(K)    4.9548
 GAMMAs            1.1726
 SON VEL,M/SEC      689.1

 MOLE FRACTIONS

 CH3             8.527-10
 CH2OH           3.147-15
 CH4             7.0419-3
 CH3OH           3.995-10
 *CO             1.7777-1
 *CO2            1.3248-2
 COOH            1.112-13
 C2H2,acetylene  5.497-10
 CH2CO,ketene    1.1454-9
 O(CH)2O         1.099-16
 C2H3,vinyl      5.820-16
 CH3CN           1.0016-8
 CH3CO,acetyl    1.356-14
 C2H4            5.8642-8
 CH3CHO,ethanal  7.051-11
 CH3COOH         1.231-12
 C2H5            1.038-13
 C2H6            3.6016-8
 C2H5OH          3.961-14
 C2N2            1.058-14
 C3H3,2-propynl  1.445-16
 C3H4,allene     6.401-14
 C3H4,propyne    2.337-13
 C3H5,allyl      1.590-15
 C3H6,propylene  9.220-12
 C3H6,cyclo-     4.514-15
 C3H6O,acetone   1.323-14
 C3H6O,propanal  1.039-15
 C3H8            7.288-13
 C3O2            4.711-15
 C4H6,butadiene  9.345-16
 C4H8,1-butene   1.758-16
 C4H8,cis2-buten 1.296-16
 C4H8,tr2-butene 1.491-16
 C4H8,isobutene  2.239-16
 C6H6            8.215-16
 *H              1.9372-9
 HCN             3.0502-6
 HCO             9.469-12
 HNC             4.1172-9
 HNCO            5.7258-8
 *H2             2.8708-1
 HCHO,formaldehy 3.0625-8
 HCOOH           3.4252-9
 H2O             1.6152-2
 NH2             5.368-13
 NH3             5.5681-5
 *NO             5.058-16
 *N2             4.1457-1
 *OH             3.561-13
 C(gr)           8.4072-2

  * THERMODYNAMIC PROPERTIES FITTED TO 20000.K



