
 *******************************************************************************

         NASA-GLENN CHEMICAL EQUILIBRIUM PROGRAM CEA2, MAY 21, 2004
                   BY  BONNIE MCBRIDE AND SANFORD GORDON
      REFS: NASA RP-1311, PART I, 1994 AND NASA RP-1311, PART II, 1996

 *******************************************************************************



 problem    phi,eq.ratio=0.5,0.6,0.7,0.8,0.9,1,1.1,1.2,1.3,1.4,1.5,1.6,1.7,1.8,1.
 9,2,
     hp   p,bar=1,  t,k=3800
 react
   fuel=C8H18,isooctane moles=1 t,k=300
   oxid=O2 moles=12.5 t,k=300
   oxid=N2 moles=47.0238 t,k=300
 output  short   trace=1e-16
 end




         THERMODYNAMIC EQUILIBRIUM COMBUSTION PROPERTIES AT ASSIGNED

                                   PRESSURES

 CASE =                

             REACTANT                       MOLES         ENERGY      TEMP
                                                         KJ/KG-MOL      K
 FUEL        C8H18,isooctane              1.0000000   -223660.458    300.000
 OXIDANT     O2                          12.5000000        54.358    300.000
 OXIDANT     N2                          47.0238000        53.881    300.000

 O/F=   30.06747  %FUEL=  3.218800  R,EQ.RATIO= 0.500000  PHI,EQ.RATIO= 0.500000

 THERMODYNAMIC PROPERTIES

 P, BAR            1.0000
 T, K             1510.54
 RHO, KG/CU M    2.2870-1
 H, KJ/KG         -61.214
 U, KJ/KG         -498.46
 G, KJ/KG        -13442.9
 S, KJ/(KG)(K)     8.8589

 M, (1/n)          28.724
 (dLV/dLP)t      -1.00001
 (dLV/dLT)p        1.0003
 Cp, KJ/(KG)(K)    1.3223
 GAMMAs            1.2804
 SON VEL,M/SEC      748.2

 MOLE FRACTIONS

 *CO             1.1669-6
 *CO2            6.4750-2
 COOH            6.305-13
 *H              1.4110-8
 HNCO            4.492-16
 HNO             1.827-10
 HNO2            3.1001-8
 HNO3            1.669-11
 HO2             1.0784-7
 *H2             4.9851-7
 HCOOH           4.273-14
 H2O             7.2809-2
 H2O2            5.1455-9
 *N              6.923-14
 *NH             3.077-15
 NH2             1.409-15
 NH3             1.852-14
 *NO             8.7632-4
 NO2             3.1667-6
 NO3             1.347-12
 *N2             7.6077-1
 N2O             5.2766-8
 N2O3            9.627-15
 *O              1.4833-6
 *OH             7.1754-5
 *O2             1.0071-1
 O3              1.098-10

  * THERMODYNAMIC PROPERTIES FITTED TO 20000.K









         THERMODYNAMIC EQUILIBRIUM COMBUSTION PROPERTIES AT ASSIGNED

                                   PRESSURES

 CASE =                

             REACTANT                       MOLES         ENERGY      TEMP
                                                         KJ/KG-MOL      K
 FUEL        C8H18,isooctane              1.0000000   -223660.458    300.000
 OXIDANT     O2                          12.5000000        54.358    300.000
 OXIDANT     N2                          47.0238000        53.881    300.000

 O/F=   25.05623  %FUEL=  3.837854  R,EQ.RATIO= 0.600000  PHI,EQ.RATIO= 0.600000

 THERMODYNAMIC PROPERTIES

 P, BAR            1.0000
 T, K             1703.55
 RHO, KG/CU M    2.0260-1
 H, KJ/KG         -73.346
 U, KJ/KG         -566.92
 G, KJ/KG        -15487.9
 S, KJ/(KG)(K)     9.0485

 M, (1/n)          28.697
 (dLV/dLP)t      -1.00003
 (dLV/dLT)p        1.0013
 Cp, KJ/(KG)(K)    1.3812
 GAMMAs            1.2663
 SON VEL,M/SEC      790.6

 MOLE FRACTIONS

 *CO             1.9553-5
 *CO2            7.7114-2
 COOH            1.339-11
 *H              3.8591-7
 HCO             5.843-15
 HNCO            2.534-14
 HNO             1.4168-9
 HNO2            4.3460-8
 HNO3            1.306-11
 HO2             3.2683-7
 *H2             6.4005-6
 HCOOH           7.500-13
 H2O             8.6611-2
 H2O2            1.4502-8
 *N              5.181-12
 NCO             5.198-16
 *NH             2.748-13
 NH2             9.458-14
 NH3             5.111-13
 NH2OH           2.044-16
 *NO             1.7692-3
 NO2             3.4038-6
 NO3             1.896-12
 *N2             7.5476-1
 N2O             1.0138-7
 N2O3            1.605-14
 *O              1.3072-5
 *OH             3.1448-4
 *O2             7.9387-2
 O3              2.849-10

  * THERMODYNAMIC PROPERTIES FITTED TO 20000.K









         THERMODYNAMIC EQUILIBRIUM COMBUSTION PROPERTIES AT ASSIGNED

                                   PRESSURES

 CASE =                

             REACTANT                       MOLES         ENERGY      TEMP
                                                         KJ/KG-MOL      K
 FUEL        C8H18,isooctane              1.0000000   -223660.458    300.000
 OXIDANT     O2                          12.5000000        54.358    300.000
 OXIDANT     N2                          47.0238000        53.881    300.000

 O/F=   21.47677  %FUEL=  4.449038  R,EQ.RATIO= 0.700000  PHI,EQ.RATIO= 0.700000

 THERMODYNAMIC PROPERTIES

 P, BAR            1.0000
 T, K             1883.29
 RHO, KG/CU M    1.8306-1
 H, KJ/KG         -85.325
 U, KJ/KG         -631.58
 G, KJ/KG        -17442.3
 S, KJ/(KG)(K)     9.2163

 M, (1/n)          28.665
 (dLV/dLP)t      -1.00013
 (dLV/dLT)p        1.0049
 Cp, KJ/(KG)(K)    1.4594
 GAMMAs            1.2509
 SON VEL,M/SEC      826.6

 MOLE FRACTIONS

 *CO             1.7287-4
 *CO2            8.9145-2
 COOH            1.389-10
 *H              4.7874-6
 HCN             9.456-16
 HCO             3.863-13
 HNCO            5.816-13
 HNO             6.4186-9
 HNO2            5.1368-8
 HNO3            9.398-12
 HO2             6.8358-7
 *H2             4.6791-5
 HCHO,formaldehy 3.381-15
 HCOOH           7.098-12
 H2O             9.9971-2
 H2O2            2.9989-8
 *N              1.305-10
 NCO             2.462-14
 *NH             8.205-12
 NH2             2.377-12
 NH3             6.900-12
 NH2OH           2.434-15
 *NO             2.7963-3
 NO2             3.1552-6
 NO3             2.026-12
 *N2             7.4861-1
 N2O             1.5546-7
 N2O3            1.948-14
 N3              2.402-16
 *O              6.2368-5
 *OH             9.2378-4
 *O2             5.8258-2
 O3              4.801-10

  * THERMODYNAMIC PROPERTIES FITTED TO 20000.K









         THERMODYNAMIC EQUILIBRIUM COMBUSTION PROPERTIES AT ASSIGNED

                                   PRESSURES

 CASE =                

             REACTANT                       MOLES         ENERGY      TEMP
                                                         KJ/KG-MOL      K
 FUEL        C8H18,isooctane              1.0000000   -223660.458    300.000
 OXIDANT     O2                          12.5000000        54.358    300.000
 OXIDANT     N2                          47.0238000        53.881    300.000

 O/F=   18.79217  %FUEL=  5.052503  R,EQ.RATIO= 0.800000  PHI,EQ.RATIO= 0.800000

 THERMODYNAMIC PROPERTIES

 P, BAR            1.0000
 T, K             2046.74
 RHO, KG/CU M    1.6816-1
 H, KJ/KG         -97.152
 U, KJ/KG         -691.81
 G, KJ/KG        -19268.2
 S, KJ/(KG)(K)     9.3666

 M, (1/n)          28.617
 (dLV/dLP)t      -1.00050
 (dLV/dLT)p        1.0164
 Cp, KJ/(KG)(K)    1.5993
 GAMMAs            1.2303
 SON VEL,M/SEC      855.3

 MOLE FRACTIONS

 *CN             1.984-16
 *CO             9.9678-4
 *CO2            1.0027-1
 COOH            8.695-10
 *H              3.4162-5
 HCN             5.353-14
 HCO             1.081-11
 HNC             2.941-15
 HNCO            7.327-12
 HNO             1.9374-8
 HNO2            5.0714-8
 HNO3            5.792-12
 HO2             1.0366-6
 *H2             2.3581-4
 HCHO,formaldehy 9.689-14
 HCOOH           4.413-11
 H2O             1.1267-1
 H2O2            4.7725-8
 *N              1.5015-9
 NCO             5.076-13
 *NH             1.133-10
 NH2             3.050-11
 NH3             5.854-11
 NH2OH           1.714-14
 *NO             3.5761-3
 NO2             2.4453-6
 NO3             1.590-12
 *N2             7.4224-1
 N2H2            6.941-16
 N2O             1.9516-7
 N2O3            1.684-14
 N3              2.264-15
 N3H             2.527-16
 *O              1.8461-4
 *OH             1.9973-3
 *O2             3.7798-2
 O3              5.330-10

  * THERMODYNAMIC PROPERTIES FITTED TO 20000.K









         THERMODYNAMIC EQUILIBRIUM COMBUSTION PROPERTIES AT ASSIGNED

                                   PRESSURES

 CASE =                

             REACTANT                       MOLES         ENERGY      TEMP
                                                         KJ/KG-MOL      K
 FUEL        C8H18,isooctane              1.0000000   -223660.458    300.000
 OXIDANT     O2                          12.5000000        54.358    300.000
 OXIDANT     N2                          47.0238000        53.881    300.000

 O/F=   16.70415  %FUEL=  5.648392  R,EQ.RATIO= 0.900000  PHI,EQ.RATIO= 0.900000

 THERMODYNAMIC PROPERTIES

 P, BAR            1.0000
 T, K             2183.69
 RHO, KG/CU M    1.5711-1
 H, KJ/KG         -108.83
 U, KJ/KG         -745.33
 G, KJ/KG        -20859.0
 S, KJ/(KG)(K)     9.5023

 M, (1/n)          28.525
 (dLV/dLP)t      -1.00156
 (dLV/dLT)p        1.0479
 Cp, KJ/(KG)(K)    1.8932
 GAMMAs            1.2012
 SON VEL,M/SEC      874.4

 MOLE FRACTIONS

 *CN             8.842-15
 *CO             4.1871-3
 *CO2            1.0865-1
 COOH            3.5822-9
 *H              1.5571-4
 HCN             1.539-12
 HCO             1.565-10
 HNC             1.064-13
 HNCO            5.961-11
 HNO             3.9769-8
 HNO2            3.8843-8
 HNO3            2.650-12
 HO2             1.0820-6
 *H2             9.1729-4
 HCHO,formaldehy 1.572-12
 HCOOH           1.996-10
 H2O             1.2435-1
 H2O2            5.6744-8
 *N              8.7739-9
 NCO             5.365-12
 *NH             8.296-10
 NH2             2.329-10
 NH3             3.647-10
 NH2OH           7.859-14
 *NO             3.5735-3
 NO2             1.4280-6
 NO3             7.868-13
 *N2             7.3519-1
 N2H2            5.904-15
 N2O             1.9280-7
 N2O3            8.931-15
 N3              1.144-14
 N3H             1.478-15
 *O              3.3932-4
 *OH             3.2106-3
 *O2             1.9420-2
 O3              3.406-10

  * THERMODYNAMIC PROPERTIES FITTED TO 20000.K









         THERMODYNAMIC EQUILIBRIUM COMBUSTION PROPERTIES AT ASSIGNED

                                   PRESSURES

 CASE =                

             REACTANT                       MOLES         ENERGY      TEMP
                                                         KJ/KG-MOL      K
 FUEL        C8H18,isooctane              1.0000000   -223660.458    300.000
 OXIDANT     O2                          12.5000000        54.358    300.000
 OXIDANT     N2                          47.0238000        53.881    300.000

 O/F=   15.03374  %FUEL=  6.236849  R,EQ.RATIO= 1.000000  PHI,EQ.RATIO= 1.000000

 THERMODYNAMIC PROPERTIES

 P, BAR            1.0000
 T, K             2270.17
 RHO, KG/CU M    1.5010-1
 H, KJ/KG         -120.36
 U, KJ/KG         -786.61
 G, KJ/KG        -21970.8
 S, KJ/(KG)(K)     9.6250

 M, (1/n)          28.331
 (dLV/dLP)t      -1.00314
 (dLV/dLT)p        1.0928
 Cp, KJ/(KG)(K)    2.2835
 GAMMAs            1.1769
 SON VEL,M/SEC      885.5

 MOLE FRACTIONS

 *CN             1.609-13
 *CO             1.3520-2
 *CO2            1.1023-1
 COOH            9.5347-9
 *H              4.5331-4
 HCN             2.681-11
 HCO             1.2542-9
 HNC             2.110-12
 HNCO            3.433-10
 HNO             4.9783-8
 HNO2            1.8808-8
 HNO3            6.499-13
 HO2             6.2649-7
 *H2             2.9904-3
 HCHO,formaldehy 1.650-11
 HCOOH           6.885-10
 H2O             1.3425-1
 H2O2            4.3406-8
 *N              2.3903-8
 NCO             2.923-11
 *NH             3.1502-9
 NH2             1.1110-9
 NH3             1.9017-9
 NH2OH           2.340-13
 *NO             2.4156-3
 NO2             4.8279-7
 NO3             1.645-13
 *N2             7.2619-1
 N2H2            2.995-14
 N2O             1.2924-7
 N2O3            1.936-15
 N3              2.850-14
 N3H             4.914-15
 *O              3.2576-4
 *OH             3.5005-3
 *O2             6.1216-3
 O3              8.276-11

  * THERMODYNAMIC PROPERTIES FITTED TO 20000.K









         THERMODYNAMIC EQUILIBRIUM COMBUSTION PROPERTIES AT ASSIGNED

                                   PRESSURES

 CASE =                

             REACTANT                       MOLES         ENERGY      TEMP
                                                         KJ/KG-MOL      K
 FUEL        C8H18,isooctane              1.0000000   -223660.458    300.000
 OXIDANT     O2                          12.5000000        54.358    300.000
 OXIDANT     N2                          47.0238000        53.881    300.000

 O/F=   13.66703  %FUEL=  6.818011  R,EQ.RATIO= 1.100000  PHI,EQ.RATIO= 1.100000

 THERMODYNAMIC PROPERTIES

 P, BAR            1.0000
 T, K             2270.28
 RHO, KG/CU M    1.4812-1
 H, KJ/KG         -131.75
 U, KJ/KG         -806.89
 G, KJ/KG        -22233.2
 S, KJ/(KG)(K)     9.7351

 M, (1/n)          27.959
 (dLV/dLP)t      -1.00175
 (dLV/dLT)p        1.0522
 Cp, KJ/(KG)(K)    1.9485
 GAMMAs            1.2008
 SON VEL,M/SEC      900.4

 MOLE FRACTIONS

 *C              4.615-16
 CH2             3.887-16
 CH3             2.504-15
 CH2OH           6.921-16
 CH4             1.476-15
 *CN             1.043-12
 *CO             3.3001-2
 *CO2            1.0050-1
 COOH            1.4550-8
 C2O             1.085-16
 *H              7.5875-4
 HCN             2.903-10
 HCO             5.1234-9
 HNC             2.285-11
 HNCO            1.3889-9
 HNO             3.0851-8
 HNO2            4.3547-9
 HNO3            5.624-14
 HO2             1.4643-7
 *H2             8.3691-3
 HCHO,formaldehy 1.127-10
 HCOOH           1.7570-9
 H2O             1.4035-1
 H2O2            1.6966-8
 *N              2.3711-8
 NCO             7.075-11
 *NH             5.2262-9
 NH2             3.0822-9
 NH3             8.8209-9
 NH2OH           4.057-13
 *NO             8.9482-4
 NO2             6.6838-8
 NO3             8.511-15
 *N2             7.1295-1
 N2H2            8.233-14
 N2O             4.7435-8
 N3              2.775-14
 N3H             8.002-15
 *O              1.2184-4
 *OH             2.1890-3
 *O2             8.5525-4
 O3              4.323-12

  * THERMODYNAMIC PROPERTIES FITTED TO 20000.K









         THERMODYNAMIC EQUILIBRIUM COMBUSTION PROPERTIES AT ASSIGNED

                                   PRESSURES

 CASE =                

             REACTANT                       MOLES         ENERGY      TEMP
                                                         KJ/KG-MOL      K
 FUEL        C8H18,isooctane              1.0000000   -223660.458    300.000
 OXIDANT     O2                          12.5000000        54.358    300.000
 OXIDANT     N2                          47.0238000        53.881    300.000

 O/F=   12.52811  %FUEL=  7.392013  R,EQ.RATIO= 1.200000  PHI,EQ.RATIO= 1.200000

 THERMODYNAMIC PROPERTIES

 P, BAR            1.0000
 T, K             2207.24
 RHO, KG/CU M    1.4969-1
 H, KJ/KG         -143.00
 U, KJ/KG         -811.03
 G, KJ/KG        -21848.4
 S, KJ/(KG)(K)     9.8338

 M, (1/n)          27.472
 (dLV/dLP)t      -1.00062
 (dLV/dLT)p        1.0183
 Cp, KJ/(KG)(K)    1.6578
 GAMMAs            1.2326
 SON VEL,M/SEC      907.4

 MOLE FRACTIONS

 *C              6.918-16
 *CH             2.458-16
 CH2             2.056-15
 CH3             2.802-14
 CH2OH           3.225-15
 CH3O            3.966-16
 CH4             3.349-14
 CH3OH           5.651-16
 *CN             2.375-12
 *CO             5.6867-2
 *CO2            8.5356-2
 COOH            1.3749-8
 CH2CO,ketene    3.248-16
 C2O             4.476-16
 *H              7.8321-4
 HCN             1.5233-9
 HCO             1.0225-8
 HNC             1.092-10
 HNCO            3.4614-9
 HNO             1.2317-8
 HNO2            7.377-10
 HNO3            3.327-15
 HO2             2.2159-8
 *H2             1.7763-2
 HCHO,formaldehy 4.130-10
 HCOOH           3.0725-9
 H2O             1.4136-1
 H2O2            4.6852-9
 *N              1.1325-8
 NCO             8.225-11
 *NH             4.3832-9
 NH2             4.8911-9
 NH3             2.9288-8
 NH2OH           4.315-13
 *NO             2.4978-4
 NO2             6.5761-9
 NO3             2.533-16
 *N2             6.9653-1
 N2H2            1.230-13
 N2O             1.3107-8
 N3              1.369-14
 N3H             7.152-15
 *O              2.6834-5
 *OH             9.8132-4
 *O2             8.9944-5
 O3              1.173-13

  * THERMODYNAMIC PROPERTIES FITTED TO 20000.K









         THERMODYNAMIC EQUILIBRIUM COMBUSTION PROPERTIES AT ASSIGNED

                                   PRESSURES

 CASE =                

             REACTANT                       MOLES         ENERGY      TEMP
                                                         KJ/KG-MOL      K
 FUEL        C8H18,isooctane              1.0000000   -223660.458    300.000
 OXIDANT     O2                          12.5000000        54.358    300.000
 OXIDANT     N2                          47.0238000        53.881    300.000

 O/F=   11.56441  %FUEL=  7.958987  R,EQ.RATIO= 1.300000  PHI,EQ.RATIO= 1.300000

 THERMODYNAMIC PROPERTIES

 P, BAR            1.0000
 T, K             2130.43
 RHO, KG/CU M    1.5229-1
 H, KJ/KG         -154.12
 U, KJ/KG         -810.76
 G, KJ/KG        -21294.8
 S, KJ/(KG)(K)     9.9232

 M, (1/n)          26.976
 (dLV/dLP)t      -1.00030
 (dLV/dLT)p        1.0088
 Cp, KJ/(KG)(K)    1.5806
 GAMMAs            1.2471
 SON VEL,M/SEC      904.9

 MOLE FRACTIONS

 *C              5.208-16
 *CH             3.068-16
 CH2             5.056-15
 CH3             1.453-13
 CH2OH           8.201-15
 CH3O            9.279-16
 CH4             3.472-13
 CH3OH           2.697-15
 *CN             3.088-12
 *CO             7.8442-2
 *CO2            7.1924-2
 COOH            1.0608-8
 CH2CO,ketene    2.065-15
 OCCN            1.394-16
 C2O             8.548-16
 *H              6.5085-4
 HCN             4.6650-9
 HCO             1.3607-8
 HCCO            1.078-16
 HNC             2.959-10
 HNCO            6.1683-9
 HNO             4.5785-9
 HNO2            1.377-10
 HNO3            2.426-16
 HO2             3.5612-9
 *H2             2.9982-2
 HCHO,formaldehy 9.648-10
 HCOOH           4.2052-9
 H2O             1.3864-1
 H2O2            1.3107-9
 *N              4.3542-9
 NCO             6.832-11
 *NH             2.7891-9
 NH2             5.6783-9
 NH3             7.0696-8
 NH2OH           3.638-13
 *NO             7.3101-5
 NO2             7.606-10
 *N2             6.7985-1
 N2H2            1.326-13
 N2O             3.8006-9
 N3              5.521-15
 N3H             4.978-15
 *O              5.7580-6
 *OH             4.2214-4
 *O2             1.1305-5
 O3              3.890-15

  * THERMODYNAMIC PROPERTIES FITTED TO 20000.K









         THERMODYNAMIC EQUILIBRIUM COMBUSTION PROPERTIES AT ASSIGNED

                                   PRESSURES

 CASE =                

             REACTANT                       MOLES         ENERGY      TEMP
                                                         KJ/KG-MOL      K
 FUEL        C8H18,isooctane              1.0000000   -223660.458    300.000
 OXIDANT     O2                          12.5000000        54.358    300.000
 OXIDANT     N2                          47.0238000        53.881    300.000

 O/F=   10.73838  %FUEL=  8.519061  R,EQ.RATIO= 1.400000  PHI,EQ.RATIO= 1.400000

 THERMODYNAMIC PROPERTIES

 P, BAR            1.0000
 T, K             2053.01
 RHO, KG/CU M    1.5522-1
 H, KJ/KG         -165.09
 U, KJ/KG         -809.33
 G, KJ/KG        -20705.9
 S, KJ/(KG)(K)    10.0052

 M, (1/n)          26.496
 (dLV/dLP)t      -1.00018
 (dLV/dLT)p        1.0051
 Cp, KJ/(KG)(K)    1.5560
 GAMMAs            1.2556
 SON VEL,M/SEC      899.4

 MOLE FRACTIONS

 *C              2.839-16
 *CH             2.645-16
 CH2             8.305-15
 CH3             4.898-13
 CH2OH           1.501-14
 CH3O            1.554-15
 CH4             2.272-12
 CH3OH           8.935-15
 *CN             3.046-12
 *CO             9.6842-2
 *CO2            6.1242-2
 COOH            7.5049-9
 C2H2,acetylene  4.519-16
 CH2CO,ketene    8.282-15
 OCCN            2.133-16
 C2O             1.114-15
 *H              4.8703-4
 HCN             1.0651-8
 HCO             1.4772-8
 HCCO            2.187-16
 HNC             5.918-10
 HNCO            9.2068-9
 HNO             1.6876-9
 HNO2            2.828-11
 HO2             6.204-10
 *H2             4.4179-2
 HCHO,formaldehy 1.7629-9
 HCOOH           5.0667-9
 H2O             1.3333-1
 H2O2            3.807-10
 *N              1.5475-9
 NCO             4.879-11
 *NH             1.5638-9
 NH2             5.5848-9
 NH3             1.4054-7
 NH2OH           2.722-13
 *NO             2.2715-5
 NO2             1.016-10
 *N2             6.6371-1
 N2H2            1.208-13
 N2O             1.1718-9
 N3              2.073-15
 N3H             3.085-15
 *O              1.2771-6
 *OH             1.8178-4
 *O2             1.6504-6
 O3              1.579-16

  * THERMODYNAMIC PROPERTIES FITTED TO 20000.K









         THERMODYNAMIC EQUILIBRIUM COMBUSTION PROPERTIES AT ASSIGNED

                                   PRESSURES

 CASE =                

             REACTANT                       MOLES         ENERGY      TEMP
                                                         KJ/KG-MOL      K
 FUEL        C8H18,isooctane              1.0000000   -223660.458    300.000
 OXIDANT     O2                          12.5000000        54.358    300.000
 OXIDANT     N2                          47.0238000        53.881    300.000

 O/F=   10.02249  %FUEL=  9.072359  R,EQ.RATIO= 1.500000  PHI,EQ.RATIO= 1.500000

 THERMODYNAMIC PROPERTIES

 P, BAR            1.0000
 T, K             1977.36
 RHO, KG/CU M    1.5836-1
 H, KJ/KG         -175.94
 U, KJ/KG         -807.40
 G, KJ/KG        -20109.5
 S, KJ/(KG)(K)    10.0809

 M, (1/n)          26.036
 (dLV/dLP)t      -1.00011
 (dLV/dLT)p        1.0031
 Cp, KJ/(KG)(K)    1.5477
 GAMMAs            1.2619
 SON VEL,M/SEC      892.6

 MOLE FRACTIONS

 *C              1.271-16
 *CH             1.819-16
 CH2             1.066-14
 CH3             1.271-12
 CH2OH           2.250-14
 CH3O            2.124-15
 CH4             1.125-11
 CH3OH           2.371-14
 *CN             2.547-12
 *CO             1.1252-1
 *CO2            5.2910-2
 COOH            5.0563-9
 C2H2,acetylene  1.852-15
 CH2CO,ketene    2.537-14
 OCCN            2.638-16
 C2O             1.163-15
 *H              3.4038-4
 HCN             2.0435-8
 HCO             1.4212-8
 HCCO            3.450-16
 HNC             9.876-10
 HNCO            1.2403-8
 HNO             6.158-10
 HNO2            6.119-12
 HO2             1.128-10
 *H2             5.9679-2
 HCHO,formaldehy 2.7822-9
 HCOOH           5.6730-9
 H2O             1.2622-1
 H2O2            1.123-10
 *N              5.216-10
 NCO             3.192-11
 *NH             8.068-10
 NH2             4.9350-9
 NH3             2.4694-7
 NH2OH           1.882-13
 *NO             7.2964-6
 NO2             1.475-11
 *N2             6.4825-1
 N2H2            9.880-14
 N2O             3.740-10
 N3              7.418-16
 N3H             1.774-15
 *O              2.8753-7
 *OH             7.7939-5
 *O2             2.6272-7

  * THERMODYNAMIC PROPERTIES FITTED TO 20000.K









         THERMODYNAMIC EQUILIBRIUM COMBUSTION PROPERTIES AT ASSIGNED

                                   PRESSURES

 CASE =                

             REACTANT                       MOLES         ENERGY      TEMP
                                                         KJ/KG-MOL      K
 FUEL        C8H18,isooctane              1.0000000   -223660.458    300.000
 OXIDANT     O2                          12.5000000        54.358    300.000
 OXIDANT     N2                          47.0238000        53.881    300.000

 O/F=    9.39609  %FUEL=  9.619005  R,EQ.RATIO= 1.600000  PHI,EQ.RATIO= 1.600000

 THERMODYNAMIC PROPERTIES

 P, BAR            1.0000
 T, K             1903.93
 RHO, KG/CU M    1.6169-1
 H, KJ/KG         -186.65
 U, KJ/KG         -805.13
 G, KJ/KG        -19513.4
 S, KJ/(KG)(K)    10.1510

 M, (1/n)          25.596
 (dLV/dLP)t      -1.00007
 (dLV/dLT)p        1.0019
 Cp, KJ/(KG)(K)    1.5460
 GAMMAs            1.2672
 SON VEL,M/SEC      885.3

 MOLE FRACTIONS

 *CH             1.064-16
 CH2             1.156-14
 CH3             2.773-12
 CH2OH           2.945-14
 CH3O            2.528-15
 CH4             4.660-11
 CH3OH           5.448-14
 *CN             1.899-12
 *CO             1.2605-1
 *CO2            4.6377-2
 COOH            3.2922-9
 C2H2,acetylene  6.084-15
 CH2CO,ketene    6.553-14
 OCCN            2.840-16
 C2O             1.048-15
 *H              2.2557-4
 HCN             3.5047-8
 HCO             1.2595-8
 HCCO            4.614-16
 HNC             1.4635-9
 HNCO            1.5661-8
 HNO             2.206-10
 HNO2            1.352-12
 HO2             2.072-11
 *H2             7.5919-2
 HCHO,formaldehy 3.9917-9
 HCOOH           6.0649-9
 H2O             1.1793-1
 H2O2            3.302-11
 *N              1.673-10
 NCO             1.963-11
 *NH             3.892-10
 NH2             4.0300-9
 NH3             3.9911-7
 NH2OH           1.223-13
 *NO             2.3708-6
 NO2             2.226-12
 *N2             6.3346-1
 N2H2            7.461-14
 N2O             1.210-10
 N3              2.539-16
 N3H             9.614-16
 *O              6.4375-8
 *OH             3.2984-5
 *O2             4.3603-8

  * THERMODYNAMIC PROPERTIES FITTED TO 20000.K









         THERMODYNAMIC EQUILIBRIUM COMBUSTION PROPERTIES AT ASSIGNED

                                   PRESSURES

 CASE =                

             REACTANT                       MOLES         ENERGY      TEMP
                                                         KJ/KG-MOL      K
 FUEL        C8H18,isooctane              1.0000000   -223660.458    300.000
 OXIDANT     O2                          12.5000000        54.358    300.000
 OXIDANT     N2                          47.0238000        53.881    300.000

 O/F=    8.84337  %FUEL= 10.159118  R,EQ.RATIO= 1.700000  PHI,EQ.RATIO= 1.700000

 THERMODYNAMIC PROPERTIES

 P, BAR            1.0000
 T, K             1832.68
 RHO, KG/CU M    1.6521-1
 H, KJ/KG         -197.24
 U, KJ/KG         -802.53
 G, KJ/KG        -18919.7
 S, KJ/(KG)(K)    10.2159

 M, (1/n)          25.174
 (dLV/dLP)t      -1.00004
 (dLV/dLT)p        1.0012
 Cp, KJ/(KG)(K)    1.5475
 GAMMAs            1.2721
 SON VEL,M/SEC      877.5

 MOLE FRACTIONS

 CH2             1.104-14
 CH3             5.366-12
 CH2OH           3.497-14
 CH3O            2.721-15
 CH4             1.719-10
 CH3OH           1.135-13
 *CN             1.297-12
 *CO             1.3794-1
 *CO2            4.1174-2
 COOH            2.0836-9
 C2H2,acetylene  1.724-14
 CH2CO,ketene    1.512-13
 OCCN            2.770-16
 C2N2            1.648-16
 C2O             8.482-16
 *H              1.4278-4
 HCN             5.5714-8
 HCO             1.0497-8
 HCCO            5.491-16
 HNC             1.9961-9
 HNCO            1.8934-8
 HNO             7.697-11
 HNO2            2.978-13
 HO2             3.759-12
 *H2             9.2473-2
 HCHO,formaldehy 5.3628-9
 HCOOH           6.2842-9
 H2O             1.0895-1
 H2O2            9.538-12
 *N              5.094-11
 NCO             1.149-11
 *NH             1.767-10
 NH2             3.0894-9
 NH3             6.0846-7
 NH2OH           7.536-14
 *NO             7.6649-7
 NO2             3.381-13
 *N2             6.1931-1
 N2H2            5.286-14
 N2O             3.900-11
 N3H             4.943-16
 *O              1.4088-8
 *OH             1.3669-5
 *O2             7.3066-9

  * THERMODYNAMIC PROPERTIES FITTED TO 20000.K









         THERMODYNAMIC EQUILIBRIUM COMBUSTION PROPERTIES AT ASSIGNED

                                   PRESSURES

 CASE =                

             REACTANT                       MOLES         ENERGY      TEMP
                                                         KJ/KG-MOL      K
 FUEL        C8H18,isooctane              1.0000000   -223660.458    300.000
 OXIDANT     O2                          12.5000000        54.358    300.000
 OXIDANT     N2                          47.0238000        53.881    300.000

 O/F=    8.35208  %FUEL= 10.692813  R,EQ.RATIO= 1.800000  PHI,EQ.RATIO= 1.800000

 THERMODYNAMIC PROPERTIES

 P, BAR            1.0000
 T, K             1763.50
 RHO, KG/CU M    1.6894-1
 H, KJ/KG         -207.70
 U, KJ/KG         -799.63
 G, KJ/KG        -18329.4
 S, KJ/(KG)(K)    10.2760

 M, (1/n)          24.771
 (dLV/dLP)t      -1.00002
 (dLV/dLT)p        1.0007
 Cp, KJ/(KG)(K)    1.5509
 GAMMAs            1.2767
 SON VEL,M/SEC      869.3

 MOLE FRACTIONS

 CH2             9.548-15
 CH3             9.524-12
 CH2OH           3.855-14
 CH3O            2.710-15
 CH4             5.890-10
 CH3OH           2.210-13
 *CN             8.229-13
 *CO             1.4856-1
 *CO2            3.6943-2
 COOH            1.2838-9
 C2H2,acetylene  4.412-14
 CH2CO,ketene    3.235-13
 CH3CN           1.259-16
 C2H4            1.477-16
 OCCN            2.507-16
 C2N2            2.768-16
 C2O             6.304-16
 C3O2            1.467-16
 *H              8.6622-5
 HCN             8.4015-8
 HCO             8.3230-9
 HCCO            5.989-16
 HNC             2.5633-9
 HNCO            2.2207-8
 HNO             2.595-11
 HNO2            6.425-14
 HO2             6.604-13
 *H2             1.0904-1
 HCHO,formaldehy 6.8733-9
 HCOOH           6.3663-9
 H2O             9.9601-2
 H2O2            2.672-12
 *N              1.466-11
 NCO             6.437-12
 *NH             7.571-11
 NH2             2.2442-9
 NH3             8.8997-7
 NH2OH           4.428-14
 *NO             2.4335-7
 NO2             5.041-14
 *N2             6.0576-1
 N2H2            3.546-14
 N2O             1.237-11
 N3H             2.419-16
 *O              2.9697-9
 *OH             5.5074-6
 *O2             1.2062-9

  * THERMODYNAMIC PROPERTIES FITTED TO 20000.K









         THERMODYNAMIC EQUILIBRIUM COMBUSTION PROPERTIES AT ASSIGNED

                                   PRESSURES

 CASE =                

             REACTANT                       MOLES         ENERGY      TEMP
                                                         KJ/KG-MOL      K
 FUEL        C8H18,isooctane              1.0000000   -223660.458    300.000
 OXIDANT     O2                          12.5000000        54.358    300.000
 OXIDANT     N2                          47.0238000        53.881    300.000

 O/F=    7.91249  %FUEL= 11.220205  R,EQ.RATIO= 1.900000  PHI,EQ.RATIO= 1.900000

 THERMODYNAMIC PROPERTIES

 P, BAR            1.0000
 T, K             1696.25
 RHO, KG/CU M    1.7290-1
 H, KJ/KG         -218.03
 U, KJ/KG         -796.41
 G, KJ/KG        -17742.9
 S, KJ/(KG)(K)    10.3315

 M, (1/n)          24.384
 (dLV/dLP)t      -1.00001
 (dLV/dLT)p        1.0004
 Cp, KJ/(KG)(K)    1.5553
 GAMMAs            1.2811
 SON VEL,M/SEC      860.8

 MOLE FRACTIONS

 CH2             7.600-15
 CH3             1.587-11
 CH2OH           4.005-14
 CH3O            2.534-15
 CH4             1.9295-9
 CH3OH           4.110-13
 *CN             4.895-13
 *CO             1.5820-1
 *CO2            3.3419-2
 COOH            7.698-10
 C2H2,acetylene  1.054-13
 CH2CO,ketene    6.579-13
 CH3CN           5.012-16
 C2H4            6.721-16
 OCCN            2.135-16
 C2N2            4.399-16
 C2O             4.364-16
 C3O2            2.214-16
 *H              5.0442-5
 HCN             1.2210-7
 HCO             6.3212-9
 HCCO            6.100-16
 HNC             3.1462-9
 HNCO            2.5484-8
 HNO             8.391-12
 HNO2            1.336-14
 HO2             1.105-13
 *H2             1.2542-1
 HCHO,formaldehy 8.5072-9
 HCOOH           6.3382-9
 H2O             9.0120-2
 H2O2            7.183-13
 *N              3.970-12
 NCO             3.455-12
 *NH             3.059-11
 NH2             1.5532-9
 NH3             1.2639-6
 NH2OH           2.484-14
 *NO             7.5038-8
 NO2             7.227-15
 *N2             5.9279-1
 N2H2            2.264-14
 N2O             3.816-12
 N3H             1.127-16
 *O              5.954-10
 *OH             2.1430-6
 *O2             1.922-10

  * THERMODYNAMIC PROPERTIES FITTED TO 20000.K









         THERMODYNAMIC EQUILIBRIUM COMBUSTION PROPERTIES AT ASSIGNED

                                   PRESSURES

 CASE =                

             REACTANT                       MOLES         ENERGY      TEMP
                                                         KJ/KG-MOL      K
 FUEL        C8H18,isooctane              1.0000000   -223660.458    300.000
 OXIDANT     O2                          12.5000000        54.358    300.000
 OXIDANT     N2                          47.0238000        53.881    300.000

 O/F=    7.51687  %FUEL= 11.741405  R,EQ.RATIO= 2.000000  PHI,EQ.RATIO= 2.000000

 THERMODYNAMIC PROPERTIES

 P, BAR            1.0000
 T, K             1630.79
 RHO, KG/CU M    1.7711-1
 H, KJ/KG         -228.25
 U, KJ/KG         -792.88
 G, KJ/KG        -17160.1
 S, KJ/(KG)(K)    10.3826

 M, (1/n)          24.014
 (dLV/dLP)t      -1.00001
 (dLV/dLT)p        1.0002
 Cp, KJ/(KG)(K)    1.5602
 GAMMAs            1.2854
 SON VEL,M/SEC      851.9

 MOLE FRACTIONS

 CH2             5.631-15
 CH3             2.526-11
 CH2OH           3.961-14
 CH3O            2.246-15
 CH4             6.1798-9
 CH3OH           7.407-13
 *CN             2.743-13
 *CO             1.6706-1
 *CO2            3.0409-2
 COOH            4.483-10
 C2H2,acetylene  2.403-13
 CH2CO,ketene    1.295-12
 CH3CN           1.934-15
 C2H4            2.942-15
 CH3CHO,ethanal  1.390-16
 OCCN            1.728-16
 C2N2            6.729-16
 C2O             2.837-16
 C3O2            3.238-16
 *H              2.8192-5
 HCN             1.7299-7
 HCO             4.6160-9
 HCCO            5.875-16
 HNC             3.7310-9
 HNCO            2.8780-8
 HNO             2.583-12
 HNO2            2.642-15
 HO2             1.735-14
 *H2             1.4147-1
 HCHO,formaldehy 1.0255-8
 HCOOH           6.2198-9
 H2O             8.0667-2
 H2O2            1.833-13
 *N              1.005-12
 NCO             1.778-12
 *NH             1.164-11
 NH2             1.0274-9
 NH3             1.7579-6
 NH2OH           1.331-14
 *NO             2.2247-8
 NO2             9.785-16
 *N2             5.8036-1
 N2H2            1.380-14
 N2O             1.134-12
 *O              1.122-10
 *OH             8.0000-7
 *O2             2.906-11

  * THERMODYNAMIC PROPERTIES FITTED TO 20000.K



