
 *******************************************************************************

         NASA-GLENN CHEMICAL EQUILIBRIUM PROGRAM CEA2, MAY 21, 2004
                   BY  BONNIE MCBRIDE AND SANFORD GORDON
      REFS: NASA RP-1311, PART I, 1994 AND NASA RP-1311, PART II, 1996

 *******************************************************************************



 problem    phi,eq.ratio=2.1,2.2,2.3,2.4,2.5,2.6,2.7,2.8,2.9,3,3.1,3.2,3.3,3.4,3.
 5,3.6,
       hp   p,bar=1,  t,k=3800
 react
   fuel=C8H18,isooctane moles=1 t,k=300
   oxid=O2 moles=12.5 t,k=300
   oxid=N2 moles=47.0238 t,k=300
 output
      trace=1e-16 siunits short
 end




         THERMODYNAMIC EQUILIBRIUM COMBUSTION PROPERTIES AT ASSIGNED

                                   PRESSURES

 CASE =                

             REACTANT                       MOLES         ENERGY      TEMP
                                                         KJ/KG-MOL      K
 FUEL        C8H18,isooctane              1.0000000   -223660.458    300.000
 OXIDANT     O2                          12.5000000        54.358    300.000
 OXIDANT     N2                          47.0238000        53.881    300.000

 O/F=    7.15892  %FUEL= 12.256521  R,EQ.RATIO= 2.100000  PHI,EQ.RATIO= 2.100000

 THERMODYNAMIC PROPERTIES

 P, BAR            1.0000
 T, K             1566.99
 RHO, KG/CU M    1.8159-1
 H, KJ/KG         -238.34
 U, KJ/KG         -789.04
 G, KJ/KG        -16581.2
 S, KJ/(KG)(K)    10.4294

 M, (1/n)          23.659
 (dLV/dLP)t      -1.00001
 (dLV/dLT)p        1.0001
 Cp, KJ/(KG)(K)    1.5652
 GAMMAs            1.2896
 SON VEL,M/SEC      842.7

 MOLE FRACTIONS

 CH2             3.911-15
 CH3             3.888-11
 CH2OH           3.754-14
 CH3O            1.900-15
 CH4             1.9701-8
 CH3OH           1.308-12
 *CN             1.452-13
 *CO             1.7532-1
 *CO2            2.7767-2
 COOH            2.529-10
 C2H2,acetylene  5.333-13
 CH2CO,ketene    2.502-12
 CH3CN           7.404-15
 C2H4            1.271-14
 CH3CHO,ethanal  4.338-16
 OCCN            1.338-16
 C2N2            1.004-15
 C2O             1.741-16
 C3O2            4.639-16
 *H              1.5105-5
 HCN             2.4108-7
 HCO             3.2472-9
 HCCO            5.398-16
 HNC             4.3094-9
 HNCO            3.2118-8
 HNO             7.510-13
 HNO2            4.898-16
 HO2             2.518-15
 *H2             1.5710-1
 HCHO,formaldehy 1.2111-8
 HCOOH           6.0248-9
 H2O             7.1357-2
 H2O2            4.391-14
 *N              2.362-13
 NCO             8.757-13
 *NH             4.156-12
 NH2             6.503-10
 NH3             2.4104-6
 NH2OH           6.797-15
 *NO             6.2808-9
 NO2             1.230-16
 *N2             5.6844-1
 N2H2            8.032-15
 N2O             3.218-13
 *O              1.962-11
 *OH             2.8451-7
 *O2             4.096-12

  * THERMODYNAMIC PROPERTIES FITTED TO 20000.K









         THERMODYNAMIC EQUILIBRIUM COMBUSTION PROPERTIES AT ASSIGNED

                                   PRESSURES

 CASE =                

             REACTANT                       MOLES         ENERGY      TEMP
                                                         KJ/KG-MOL      K
 FUEL        C8H18,isooctane              1.0000000   -223660.458    300.000
 OXIDANT     O2                          12.5000000        54.358    300.000
 OXIDANT     N2                          47.0238000        53.881    300.000

 O/F=    6.83352  %FUEL= 12.765658  R,EQ.RATIO= 2.200000  PHI,EQ.RATIO= 2.200000

 THERMODYNAMIC PROPERTIES

 P, BAR            1.0000
 T, K             1504.75
 RHO, KG/CU M    1.8638-1
 H, KJ/KG         -248.32
 U, KJ/KG         -784.87
 G, KJ/KG        -16006.1
 S, KJ/(KG)(K)    10.4720

 M, (1/n)          23.318
 (dLV/dLP)t      -1.00001
 (dLV/dLT)p        1.0001
 Cp, KJ/(KG)(K)    1.5701
 GAMMAs            1.2939
 SON VEL,M/SEC      833.2

 MOLE FRACTIONS

 CH2             2.558-15
 CH3             5.847-11
 CH2OH           3.425-14
 CH3O            1.538-15
 CH4             6.3476-8
 CH3OH           2.285-12
 *CN             7.267-14
 *CO             1.8309-1
 *CO2            2.5381-2
 COOH            1.376-10
 C2H2,acetylene  1.169-12
 CH2CO,ketene    4.800-12
 CH3CN           2.867-14
 CH3CO,acetyl    1.705-16
 C2H4            5.532-14
 CH3CHO,ethanal  1.357-15
 C2N2            1.478-15
 C2O             1.012-16
 C3O2            6.569-16
 *H              7.7423-6
 HCN             3.3297-7
 HCO             2.2014-9
 HCCO            4.762-16
 HNC             4.8794-9
 HNCO            3.5526-8
 HNO             2.044-13
 HO2             3.324-16
 *H2             1.7225-1
 HCHO,formaldehy 1.4076-8
 HCOOH           5.7623-9
 H2O             6.2272-2
 H2O2            9.760-15
 *N              5.117-14
 NCO             4.118-13
 *NH             1.387-12
 NH2             3.938-10
 NH3             3.2751-6
 NH2OH           3.298-15
 *NO             1.6716-9
 *N2             5.5700-1
 N2H2            4.465-15
 N2O             8.627-14
 *O              3.146-12
 *OH             9.5652-8
 *O2             5.294-13

  * THERMODYNAMIC PROPERTIES FITTED TO 20000.K









         THERMODYNAMIC EQUILIBRIUM COMBUSTION PROPERTIES AT ASSIGNED

                                   PRESSURES

 CASE =                

             REACTANT                       MOLES         ENERGY      TEMP
                                                         KJ/KG-MOL      K
 FUEL        C8H18,isooctane              1.0000000   -223660.458    300.000
 OXIDANT     O2                          12.5000000        54.358    300.000
 OXIDANT     N2                          47.0238000        53.881    300.000

 O/F=    6.53641  %FUEL= 13.268922  R,EQ.RATIO= 2.300000  PHI,EQ.RATIO= 2.300000

 THERMODYNAMIC PROPERTIES

 P, BAR            1.0000
 T, K             1443.94
 RHO, KG/CU M    1.9150-1
 H, KJ/KG         -258.18
 U, KJ/KG         -780.39
 G, KJ/KG        -15434.5
 S, KJ/(KG)(K)    10.5104

 M, (1/n)          22.990
 (dLV/dLP)t      -1.00001
 (dLV/dLT)p        1.0001
 Cp, KJ/(KG)(K)    1.5745
 GAMMAs            1.2982
 SON VEL,M/SEC      823.4

 MOLE FRACTIONS

 CH2             1.582-15
 CH3             8.667-11
 CH2OH           3.015-14
 CH3O            1.196-15
 CH4             2.0965-7
 CH3OH           3.974-12
 *CN             3.439-14
 *CO             1.9049-1
 *CO2            2.3157-2
 COOH            7.184-11
 C2H2,acetylene  2.570-12
 CH2CO,ketene    9.241-12
 O(CH)2O         1.009-16
 CH3CN           1.144-13
 CH3CO,acetyl    3.013-16
 C2H4            2.477-13
 CH3CHO,ethanal  4.322-15
 CH3COOH         2.510-16
 C2H6            6.313-16
 C2N2            2.168-15
 C3O2            9.269-16
 *H              3.7848-6
 HCN             4.5890-7
 HCO             1.4374-9
 HCCO            4.054-16
 HNC             5.4467-9
 HNCO            3.9040-8
 HNO             5.157-14
 *H2             1.8687-1
 HCHO,formaldehy 1.6153-8
 HCOOH           5.4371-9
 H2O             5.3478-2
 H2O2            1.985-15
 *N              1.012-14
 NCO             1.843-13
 *NH             4.303-13
 NH2             2.278-10
 NH3             4.4282-6
 NH2OH           1.512-15
 *NO             4.149-10
 *N2             5.4600-1
 N2H2            2.366-15
 N2O             2.162-14
 *O              4.562-13
 *OH             3.0133-8
 *O2             6.159-14

  * THERMODYNAMIC PROPERTIES FITTED TO 20000.K









         THERMODYNAMIC EQUILIBRIUM COMBUSTION PROPERTIES AT ASSIGNED

                                   PRESSURES

 CASE =                

             REACTANT                       MOLES         ENERGY      TEMP
                                                         KJ/KG-MOL      K
 FUEL        C8H18,isooctane              1.0000000   -223660.458    300.000
 OXIDANT     O2                          12.5000000        54.358    300.000
 OXIDANT     N2                          47.0238000        53.881    300.000

 O/F=    6.26406  %FUEL= 13.766412  R,EQ.RATIO= 2.400000  PHI,EQ.RATIO= 2.400000

 THERMODYNAMIC PROPERTIES

 P, BAR            1.0000
 T, K             1384.45
 RHO, KG/CU M    1.9699-1
 H, KJ/KG         -267.93
 U, KJ/KG         -775.58
 G, KJ/KG        -14866.2
 S, KJ/(KG)(K)    10.5444

 M, (1/n)          22.675
 (dLV/dLP)t      -1.00001
 (dLV/dLT)p        1.0001
 Cp, KJ/(KG)(K)    1.5784
 GAMMAs            1.3027
 SON VEL,M/SEC      813.2

 MOLE FRACTIONS

 CH2             9.259-16
 CH3             1.277-10
 CH2OH           2.565-14
 CH3O            8.922-16
 CH4             7.1986-7
 CH3OH           6.930-12
 *CN             1.538-14
 *CO             1.9760-1
 *CO2            2.1015-2
 COOH            3.577-11
 C2H2,acetylene  5.748-12
 CH2CO,ketene    1.803-11
 O(CH)2O         1.111-16
 CH3CN           4.797-13
 CH3CO,acetyl    5.334-16
 C2H4            1.164-12
 CH3CHO,ethanal  1.421-14
 CH3COOH         6.680-16
 C2H6            5.318-15
 C2N2            3.209-15
 C3O2            1.314-15
 *H              1.7576-6
 HCN             6.3548-7
 HCO             9.024-10
 HCCO            3.345-16
 HNC             6.0278-9
 HNCO            4.2700-8
 HNO             1.192-14
 *H2             2.0091-1
 HCHO,formaldehy 1.8349-8
 HCOOH           5.0507-9
 H2O             4.5028-2
 H2O2            3.635-16
 *N              1.811-15
 NCO             7.812-14
 *NH             1.232-13
 NH2             1.256-10
 NH3             5.9791-6
 NH2OH           6.511-16
 *NO             9.480-11
 *N2             5.3543-1
 N2H2            1.192-15
 N2O             5.002-15
 *O              5.886-14
 *OH             8.8007-9
 *O2             6.313-15

  * THERMODYNAMIC PROPERTIES FITTED TO 20000.K









         THERMODYNAMIC EQUILIBRIUM COMBUSTION PROPERTIES AT ASSIGNED

                                   PRESSURES

 CASE =                

             REACTANT                       MOLES         ENERGY      TEMP
                                                         KJ/KG-MOL      K
 FUEL        C8H18,isooctane              1.0000000   -223660.458    300.000
 OXIDANT     O2                          12.5000000        54.358    300.000
 OXIDANT     N2                          47.0238000        53.881    300.000

 O/F=    6.01349  %FUEL= 14.258227  R,EQ.RATIO= 2.500000  PHI,EQ.RATIO= 2.500000

 THERMODYNAMIC PROPERTIES

 P, BAR            1.0000
 T, K             1326.17
 RHO, KG/CU M    2.0290-1
 H, KJ/KG         -277.57
 U, KJ/KG         -770.43
 G, KJ/KG        -14300.8
 S, KJ/(KG)(K)    10.5742

 M, (1/n)          22.373
 (dLV/dLP)t      -1.00002
 (dLV/dLT)p        1.0002
 Cp, KJ/(KG)(K)    1.5814
 GAMMAs            1.3073
 SON VEL,M/SEC      802.7

 MOLE FRACTIONS

 CH2             5.142-16
 CH3             1.887-10
 CH2OH           2.109-14
 CH3O            6.392-16
 CH4             2.6092-6
 CH3OH           1.218-11
 *CN             6.498-15
 *CO             2.0453-1
 *CO2            1.8877-2
 COOH            1.683-11
 C2H2,acetylene  1.330-11
 CH2CO,ketene    3.608-11
 O(CH)2O         1.208-16
 CH3CN           2.159-12
 CH3CO,acetyl    9.565-16
 C2H4            5.871-12
 CH3CHO,ethanal  4.899-14
 CH3COOH         1.843-15
 C2H6            4.940-14
 C2N2            4.852-15
 C3O2            1.886-15
 *H              7.7150-7
 HCN             8.9122-7
 HCO             5.433-10
 HCCO            2.688-16
 HNC             6.6550-9
 HNCO            4.6558-8
 HNO             2.484-15
 *H2             2.1434-1
 HCHO,formaldehy 2.0675-8
 HCOOH           4.6018-9
 H2O             3.6978-2
 *N              2.892-16
 NCO             3.120-14
 *NH             3.225-14
 NH2             6.578-11
 NH3             8.0875-6
 NH2OH           2.606-16
 *NO             1.965-11
 *N2             5.2527-1
 N2H2            5.682-16
 N2O             1.053-15
 *O              6.629-15
 *OH             2.3519-9
 *O2             5.559-16

  * THERMODYNAMIC PROPERTIES FITTED TO 20000.K









         THERMODYNAMIC EQUILIBRIUM COMBUSTION PROPERTIES AT ASSIGNED

                                   PRESSURES

 CASE =                

             REACTANT                       MOLES         ENERGY      TEMP
                                                         KJ/KG-MOL      K
 FUEL        C8H18,isooctane              1.0000000   -223660.458    300.000
 OXIDANT     O2                          12.5000000        54.358    300.000
 OXIDANT     N2                          47.0238000        53.881    300.000

 O/F=    5.78221  %FUEL= 14.744464  R,EQ.RATIO= 2.600000  PHI,EQ.RATIO= 2.600000

 THERMODYNAMIC PROPERTIES

 P, BAR            1.0000
 T, K             1269.00
 RHO, KG/CU M    2.0928-1
 H, KJ/KG         -287.10
 U, KJ/KG         -764.93
 G, KJ/KG        -13738.0
 S, KJ/(KG)(K)    10.5996

 M, (1/n)          22.081
 (dLV/dLP)t      -1.00005
 (dLV/dLT)p        1.0005
 Cp, KJ/(KG)(K)    1.5843
 GAMMAs            1.3121
 SON VEL,M/SEC      791.8

 MOLE FRACTIONS

 CH2             2.717-16
 CH3             2.824-10
 CH2OH           1.675-14
 CH3O            4.389-16
 CH4             1.0159-5
 CH3OH           2.171-11
 *CN             2.593-15
 *CO             2.1134-1
 *CO2            1.6669-2
 COOH            7.394-12
 C2H2,acetylene  3.249-11
 CH2CO,ketene    7.496-11
 O(CH)2O         1.300-16
 C2H3,vinyl      1.290-16
 CH3CN           1.071-11
 CH3CO,acetyl    1.759-15
 C2H4            3.267-11
 CH3CHO,ethanal  1.803-13
 CH3COOH         5.317-15
 C2H5            2.131-16
 C2H6            5.228-13
 C2N2            7.629-15
 C3O2            2.773-15
 *H              3.1818-7
 HCN             1.2783-6
 HCO             3.127-10
 HCCO            2.116-16
 HNC             7.3890-9
 HNCO            5.0674-8
 HNO             4.588-16
 *H2             2.2710-1
 HCHO,formaldehy 2.3144-8
 HCOOH           4.0864-9
 H2O             2.9385-2
 NCO             1.166-14
 *NH             7.652-15
 NH2             3.257-11
 NH3             1.0990-5
 *NO             3.626-12
 *N2             5.1549-1
 N2H2            2.551-16
 N2O             1.979-16
 *O              6.366-16
 *OH             5.657-10

  * THERMODYNAMIC PROPERTIES FITTED TO 20000.K









         THERMODYNAMIC EQUILIBRIUM COMBUSTION PROPERTIES AT ASSIGNED

                                   PRESSURES

 CASE =                

             REACTANT                       MOLES         ENERGY      TEMP
                                                         KJ/KG-MOL      K
 FUEL        C8H18,isooctane              1.0000000   -223660.458    300.000
 OXIDANT     O2                          12.5000000        54.358    300.000
 OXIDANT     N2                          47.0238000        53.881    300.000

 O/F=    5.56805  %FUEL= 15.225217  R,EQ.RATIO= 2.700000  PHI,EQ.RATIO= 2.700000

 THERMODYNAMIC PROPERTIES

 P, BAR            1.0000
 T, K             1212.94
 RHO, KG/CU M    2.1618-1
 H, KJ/KG         -296.52
 U, KJ/KG         -759.10
 G, KJ/KG        -13178.4
 S, KJ/(KG)(K)    10.6204

 M, (1/n)          21.802
 (dLV/dLP)t      -1.00019
 (dLV/dLT)p        1.0021
 Cp, KJ/(KG)(K)    1.5914
 GAMMAs            1.3166
 SON VEL,M/SEC      780.4

 MOLE FRACTIONS

 CH2             1.375-16
 CH3             4.342-10
 CH2OH           1.285-14
 CH3O            2.883-16
 CH4             4.3332-5
 CH3OH           3.936-11
 *CN             9.826-16
 *CO             2.1812-1
 *CO2            1.4311-2
 COOH            2.988-12
 C2H2,acetylene  8.620-11
 CH2CO,ketene    1.644-10
 O(CH)2O         1.386-16
 C2H3,vinyl      2.659-16
 CH3CN           6.047-11
 CH3CO,acetyl    3.370-15
 C2H4            2.072-10
 CH3CHO,ethanal  7.221-13
 CH3COOH         1.618-14
 C2H5            1.052-15
 C2H6            6.538-12
 C2N2            1.279-14
 C3H4,allene     1.705-16
 C3H4,propyne    5.506-16
 C3H6,propylene  6.363-16
 C3O2            4.234-15
 *H              1.2262-7
 HCN             1.9002-6
 HCO             1.715-10
 HCCO            1.647-16
 HNC             8.3465-9
 HNCO            5.5110-8
 *H2             2.3909-1
 HCHO,formaldehy 2.5766-8
 HCOOH           3.4996-9
 H2O             2.2327-2
 NCO             4.055-15
 *NH             1.629-15
 NH2             1.517-11
 NH3             1.5035-5
 *NO             5.831-13
 *N2             5.0609-1
 N2H2            1.073-16
 *OH             1.201-10

  * THERMODYNAMIC PROPERTIES FITTED TO 20000.K









         THERMODYNAMIC EQUILIBRIUM COMBUSTION PROPERTIES AT ASSIGNED

                                   PRESSURES

 CASE =                

             REACTANT                       MOLES         ENERGY      TEMP
                                                         KJ/KG-MOL      K
 FUEL        C8H18,isooctane              1.0000000   -223660.458    300.000
 OXIDANT     O2                          12.5000000        54.358    300.000
 OXIDANT     N2                          47.0238000        53.881    300.000

 O/F=    5.36919  %FUEL= 15.700579  R,EQ.RATIO= 2.800000  PHI,EQ.RATIO= 2.800000

 THERMODYNAMIC PROPERTIES

 P, BAR            1.0000
 T, K             1158.58
 RHO, KG/CU M    2.2359-1
 H, KJ/KG         -305.84
 U, KJ/KG         -753.10
 G, KJ/KG        -12628.9
 S, KJ/(KG)(K)    10.6364

 M, (1/n)          21.538
 (dLV/dLP)t      -1.00083
 (dLV/dLT)p        1.0102
 Cp, KJ/(KG)(K)    1.6283
 GAMMAs            1.3177
 SON VEL,M/SEC      767.7

 MOLE FRACTIONS

 CH3             6.966-10
 CH2OH           9.518-15
 CH3O            1.816-16
 CH4             2.0464-4
 CH3OH           7.243-11
 *CN             3.618-16
 *CO             2.2487-1
 *CO2            1.1748-2
 COOH            1.096-12
 C2H2,acetylene  2.562-10
 CH2CO,ketene    3.859-10
 O(CH)2O         1.467-16
 C2H3,vinyl      6.008-16
 CH3CN           3.995-10
 CH3CO,acetyl    6.825-15
 C2H4            1.5394-9
 CH3CHO,ethanal  3.185-12
 CH3COOH         5.166-14
 C2H5            5.958-15
 C2H6            9.893-11
 C2H5OH          5.025-16
 C2N2            2.364-14
 C3H4,allene     1.861-15
 C3H4,propyne    6.195-15
 C3H6,propylene  1.676-14
 C3H8            1.665-16
 C3O2            6.832-15
 *H              4.4376-8
 HCN             2.9755-6
 HCO             8.987-11
 HCCO            1.293-16
 HNC             9.7635-9
 HNCO            5.9883-8
 *H2             2.5004-1
 HCHO,formaldehy 2.8518-8
 HCOOH           2.8423-9
 H2O             1.5948-2
 NCO             1.320-15
 *NH             3.139-16
 NH2             6.679-12
 NH3             2.0668-5
 *NO             8.101-14
 *N2             4.9716-1
 *OH             2.226-11

  * THERMODYNAMIC PROPERTIES FITTED TO 20000.K









         THERMODYNAMIC EQUILIBRIUM COMBUSTION PROPERTIES AT ASSIGNED

                                   PRESSURES

 CASE =                

             REACTANT                       MOLES         ENERGY      TEMP
                                                         KJ/KG-MOL      K
 FUEL        C8H18,isooctane              1.0000000   -223660.458    300.000
 OXIDANT     O2                          12.5000000        54.358    300.000
 OXIDANT     N2                          47.0238000        53.881    300.000

 O/F=    5.18405  %FUEL= 16.170640  R,EQ.RATIO= 2.900000  PHI,EQ.RATIO= 2.900000

 THERMODYNAMIC PROPERTIES

 P, BAR            1.0000
 T, K             1109.35
 RHO, KG/CU M    2.3104-1
 H, KJ/KG         -315.05
 U, KJ/KG         -747.89
 G, KJ/KG        -12126.9
 S, KJ/(KG)(K)    10.6475

 M, (1/n)          21.310
 (dLV/dLP)t      -1.00370
 (dLV/dLT)p        1.0482
 Cp, KJ/(KG)(K)    1.8215
 GAMMAs            1.3015
 SON VEL,M/SEC      750.6

 MOLE FRACTIONS

 CH3             1.1624-9
 CH2OH           6.956-15
 CH3O            1.132-16
 CH4             9.9021-4
 CH3OH           1.296-10
 *CN             1.428-16
 *CO             2.3126-1
 *CO2            9.0819-3
 COOH            3.800-13
 C2H2,acetylene  8.405-10
 CH2CO,ketene    9.430-10
 O(CH)2O         1.534-16
 C2H3,vinyl      1.494-15
 CH3CN           2.8778-9
 CH3CO,acetyl    1.435-14
 C2H4            1.2380-8
 CH3CHO,ethanal  1.439-11
 CH3COOH         1.599-13
 C2H5            3.645-14
 C2H6            1.5938-9
 C2H5OH          3.299-15
 C2N2            4.907-14
 C3H3,2-propynl  2.349-16
 C3H4,allene     2.326-14
 C3H4,propyne    7.981-14
 C3H5,allyl      3.989-16
 C3H6,propylene  4.962-13
 C3H6,cyclo-     3.340-16
 C3H6O,acetone   5.706-16
 C3H8            9.305-15
 C3O2            1.163-14
 *H              1.6164-8
 HCN             4.9029-6
 HCO             4.708-11
 HCCO            1.074-16
 HNC             1.2053-8
 HNCO            6.4662-8
 *H2             2.5884-1
 HCHO,formaldehy 3.1164-8
 HCOOH           2.1566-9
 H2O             1.0638-2
 NCO             4.345-16
 NH2             2.936-12
 NH3             2.7910-5
 *NO             1.081-14
 *N2             4.8915-1
 *OH             3.929-12

  * THERMODYNAMIC PROPERTIES FITTED TO 20000.K









         THERMODYNAMIC EQUILIBRIUM COMBUSTION PROPERTIES AT ASSIGNED

                                   PRESSURES

 CASE =                

             REACTANT                       MOLES         ENERGY      TEMP
                                                         KJ/KG-MOL      K
 FUEL        C8H18,isooctane              1.0000000   -223660.458    300.000
 OXIDANT     O2                          12.5000000        54.358    300.000
 OXIDANT     N2                          47.0238000        53.881    300.000

 O/F=    5.01125  %FUEL= 16.635487  R,EQ.RATIO= 3.000000  PHI,EQ.RATIO= 3.000000

 THERMODYNAMIC PROPERTIES

 P, BAR            1.0000
 T, K             1077.04
 RHO, KG/CU M    2.3648-1
 H, KJ/KG         -324.16
 U, KJ/KG         -747.03
 G, KJ/KG        -11799.1
 S, KJ/(KG)(K)    10.6542

 M, (1/n)          21.177
 MW, MOL WT        21.146
 (dLV/dLP)t      -1.01581
 (dLV/dLT)p        1.2483
 Cp, KJ/(KG)(K)    3.1539
 GAMMAs            1.2168
 SON VEL,M/SEC      717.3

 MOLE FRACTIONS

 CH3             1.7149-9
 CH2OH           5.495-15
 CH4             3.0898-3
 CH3OH           1.921-10
 *CO             2.3457-1
 *CO2            7.2265-3
 COOH            1.711-13
 C2H2,acetylene  2.0832-9
 CH2CO,ketene    1.8210-9
 O(CH)2O         1.561-16
 C2H3,vinyl      3.035-15
 CH3CN           1.2394-8
 CH3CO,acetyl    2.485-14
 C2H4            5.7446-8
 CH3CHO,ethanal  4.263-11
 CH3COOH         3.483-13
 C2H5            1.390-13
 C2H6            1.2011-8
 C2H5OH          1.265-14
 C2N2            8.860-14
 C3H3,2-propynl  9.512-16
 C3H4,allene     1.532-13
 C3H4,propyne    5.368-13
 C3H5,allyl      2.910-15
 C3H6,propylene  5.972-12
 C3H6,cyclo-     3.607-15
 C3H6O,acetone   4.674-15
 C3H6O,propanal  4.603-16
 C3H8            1.744-13
 C3O2            1.744-14
 C4H6,butadiene  1.119-15
 C6H6            7.915-16
 *H              7.8935-9
 HCN             7.2135-6
 HCO             2.957-11
 HNC             1.4463-8
 HNCO            6.7707-8
 *H2             2.6332-1
 HCHO,formaldehy 3.2804-8
 HCOOH           1.6852-9
 H2O             7.6046-3
 NCO             1.973-16
 NH2             1.630-12
 NH3             3.4132-5
 *NO             2.496-15
 *N2             4.8268-1
 *OH             1.102-12
 C(gr)           1.4688-3

  * THERMODYNAMIC PROPERTIES FITTED TO 20000.K









         THERMODYNAMIC EQUILIBRIUM COMBUSTION PROPERTIES AT ASSIGNED

                                   PRESSURES

 CASE =                

             REACTANT                       MOLES         ENERGY      TEMP
                                                         KJ/KG-MOL      K
 FUEL        C8H18,isooctane              1.0000000   -223660.458    300.000
 OXIDANT     O2                          12.5000000        54.358    300.000
 OXIDANT     N2                          47.0238000        53.881    300.000

 O/F=    4.84959  %FUEL= 17.095208  R,EQ.RATIO= 3.100000  PHI,EQ.RATIO= 3.100000

 THERMODYNAMIC PROPERTIES

 P, BAR            1.0000
 T, K             1069.47
 RHO, KG/CU M    2.3778-1
 H, KJ/KG         -333.17
 U, KJ/KG         -753.72
 G, KJ/KG        -11732.9
 S, KJ/(KG)(K)    10.6592

 M, (1/n)          21.144
 MW, MOL WT        20.915
 (dLV/dLP)t      -1.01733
 (dLV/dLT)p        1.2736
 Cp, KJ/(KG)(K)    3.3412
 GAMMAs            1.2100
 SON VEL,M/SEC      713.4

 MOLE FRACTIONS

 CH3             1.5722-9
 CH2OH           5.157-15
 CH4             3.4263-3
 CH3OH           2.118-10
 *CO             2.2821-1
 *CO2            7.8975-3
 COOH            1.642-13
 C2H2,acetylene  1.7647-9
 CH2CO,ketene    1.7297-9
 O(CH)2O         1.513-16
 C2H3,vinyl      2.470-15
 CH3CN           1.2082-8
 CH3CO,acetyl    2.318-14
 C2H4            5.7611-8
 CH3CHO,ethanal  4.567-11
 CH3COOH         4.127-13
 C2H5            1.340-13
 C2H6            1.3776-8
 C2H5OH          1.467-14
 C2N2            6.807-14
 C3H3,2-propynl  7.518-16
 C3H4,allene     1.374-13
 C3H4,propyne    4.839-13
 C3H5,allyl      2.698-15
 C3H6,propylene  6.304-12
 C3H6,cyclo-     3.708-15
 C3H6O,acetone   5.353-15
 C3H6O,propanal  5.125-16
 C3H8            2.084-13
 C3O2            1.500-14
 C4H6,butadiene  1.094-15
 C4H8,isobutene  1.043-16
 C6H6            7.949-16
 *H              6.6268-9
 HCN             6.4876-6
 HCO             2.582-11
 HNC             1.2379-8
 HNCO            6.6796-8
 *H2             2.6638-1
 HCHO,formaldehy 3.2739-8
 HCOOH           1.8642-9
 H2O             8.4121-3
 NCO             1.576-16
 NH2             1.420-12
 NH3             3.6329-5
 *NO             2.060-15
 *N2             4.7477-1
 *OH             9.633-13
 C(gr)           1.0857-2

  * THERMODYNAMIC PROPERTIES FITTED TO 20000.K









         THERMODYNAMIC EQUILIBRIUM COMBUSTION PROPERTIES AT ASSIGNED

                                   PRESSURES

 CASE =                

             REACTANT                       MOLES         ENERGY      TEMP
                                                         KJ/KG-MOL      K
 FUEL        C8H18,isooctane              1.0000000   -223660.458    300.000
 OXIDANT     O2                          12.5000000        54.358    300.000
 OXIDANT     N2                          47.0238000        53.881    300.000

 O/F=    4.69804  %FUEL= 17.549886  R,EQ.RATIO= 3.200000  PHI,EQ.RATIO= 3.200000

 THERMODYNAMIC PROPERTIES

 P, BAR            1.0000
 T, K             1062.43
 RHO, KG/CU M    2.3902-1
 H, KJ/KG         -342.09
 U, KJ/KG         -760.47
 G, KJ/KG        -11671.8
 S, KJ/(KG)(K)    10.6640

 M, (1/n)          21.114
 MW, MOL WT        20.692
 (dLV/dLP)t      -1.01885
 (dLV/dLT)p        1.2990
 Cp, KJ/(KG)(K)    3.5296
 GAMMAs            1.2039
 SON VEL,M/SEC      709.7

 MOLE FRACTIONS

 CH3             1.4484-9
 CH2OH           4.851-15
 CH4             3.7773-3
 CH3OH           2.320-10
 *CO             2.2200-1
 *CO2            8.5616-3
 COOH            1.574-13
 C2H2,acetylene  1.5088-9
 CH2CO,ketene    1.6454-9
 O(CH)2O         1.464-16
 C2H3,vinyl      2.033-15
 CH3CN           1.1792-8
 CH3CO,acetyl    2.168-14
 C2H4            5.7769-8
 CH3CHO,ethanal  4.868-11
 CH3COOH         4.830-13
 C2H5            1.295-13
 C2H6            1.5682-8
 C2H5OH          1.686-14
 C2N2            5.306-14
 C3H3,2-propynl  6.021-16
 C3H4,allene     1.240-13
 C3H4,propyne    4.387-13
 C3H5,allyl      2.512-15
 C3H6,propylene  6.635-12
 C3H6,cyclo-     3.807-15
 C3H6O,acetone   6.077-15
 C3H6O,propanal  5.664-16
 C3H8            2.466-13
 C3O2            1.297-14
 C4H6,butadiene  1.070-15
 C4H8,isobutene  1.156-16
 C6H6            7.983-16
 *H              5.6179-9
 HCN             5.8678-6
 HCO             2.269-11
 HNC             1.0685-8
 HNCO            6.5836-8
 *H2             2.6926-1
 HCHO,formaldehy 3.2630-8
 HCOOH           2.0449-9
 H2O             9.2383-3
 NCO             1.272-16
 NH2             1.247-12
 NH3             3.8522-5
 *NO             1.715-15
 *N2             4.6714-1
 *OH             8.471-13
 C(gr)           1.9977-2

  * THERMODYNAMIC PROPERTIES FITTED TO 20000.K









         THERMODYNAMIC EQUILIBRIUM COMBUSTION PROPERTIES AT ASSIGNED

                                   PRESSURES

 CASE =                

             REACTANT                       MOLES         ENERGY      TEMP
                                                         KJ/KG-MOL      K
 FUEL        C8H18,isooctane              1.0000000   -223660.458    300.000
 OXIDANT     O2                          12.5000000        54.358    300.000
 OXIDANT     N2                          47.0238000        53.881    300.000

 O/F=    4.55568  %FUEL= 17.999604  R,EQ.RATIO= 3.300000  PHI,EQ.RATIO= 3.300000

 THERMODYNAMIC PROPERTIES

 P, BAR            1.0000
 T, K             1055.86
 RHO, KG/CU M    2.4018-1
 H, KJ/KG         -350.90
 U, KJ/KG         -767.26
 G, KJ/KG        -11615.3
 S, KJ/(KG)(K)    10.6685

 M, (1/n)          21.085
 MW, MOL WT        20.477
 (dLV/dLP)t      -1.02036
 (dLV/dLT)p        1.3241
 Cp, KJ/(KG)(K)    3.7178
 GAMMAs            1.1985
 SON VEL,M/SEC      706.4

 MOLE FRACTIONS

 CH3             1.3402-9
 CH2OH           4.572-15
 CH4             4.1422-3
 CH3OH           2.525-10
 *CO             2.1594-1
 *CO2            9.2144-3
 COOH            1.509-13
 C2H2,acetylene  1.3010-9
 CH2CO,ketene    1.5673-9
 O(CH)2O         1.416-16
 C2H3,vinyl      1.692-15
 CH3CN           1.1522-8
 CH3CO,acetyl    2.032-14
 C2H4            5.7919-8
 CH3CHO,ethanal  5.165-11
 CH3COOH         5.592-13
 C2H5            1.254-13
 C2H6            1.7729-8
 C2H5OH          1.920-14
 C2N2            4.190-14
 C3H3,2-propynl  4.881-16
 C3H4,allene     1.125-13
 C3H4,propyne    4.000-13
 C3H5,allyl      2.349-15
 C3H6,propylene  6.965-12
 C3H6,cyclo-     3.904-15
 C3H6O,acetone   6.844-15
 C3H6O,propanal  6.220-16
 C3H8            2.892-13
 C3O2            1.127-14
 C4H6,butadiene  1.049-15
 C4H8,1-butene   1.070-16
 C4H8,isobutene  1.274-16
 C6H6            8.017-16
 *H              4.8049-9
 HCN             5.3344-6
 HCO             2.004-11
 HNC             9.2943-9
 HNCO            6.4836-8
 *H2             2.7197-1
 HCHO,formaldehy 3.2480-8
 HCOOH           2.2258-9
 H2O             1.0079-2
 NCO             1.038-16
 NH2             1.103-12
 NH3             4.0708-5
 *NO             1.440-15
 *N2             4.5977-1
 *OH             7.491-13
 C(gr)           2.8835-2

  * THERMODYNAMIC PROPERTIES FITTED TO 20000.K









         THERMODYNAMIC EQUILIBRIUM COMBUSTION PROPERTIES AT ASSIGNED

                                   PRESSURES

 CASE =                

             REACTANT                       MOLES         ENERGY      TEMP
                                                         KJ/KG-MOL      K
 FUEL        C8H18,isooctane              1.0000000   -223660.458    300.000
 OXIDANT     O2                          12.5000000        54.358    300.000
 OXIDANT     N2                          47.0238000        53.881    300.000

 O/F=    4.42169  %FUEL= 18.444442  R,EQ.RATIO= 3.400000  PHI,EQ.RATIO= 3.400000

 THERMODYNAMIC PROPERTIES

 P, BAR            1.0000
 T, K             1049.70
 RHO, KG/CU M    2.4128-1
 H, KJ/KG         -359.62
 U, KJ/KG         -774.07
 G, KJ/KG        -11562.8
 S, KJ/(KG)(K)    10.6727

 M, (1/n)          21.059
 MW, MOL WT        20.270
 (dLV/dLP)t      -1.02185
 (dLV/dLT)p        1.3490
 Cp, KJ/(KG)(K)    3.9047
 GAMMAs            1.1936
 SON VEL,M/SEC      703.3

 MOLE FRACTIONS

 CH3             1.2451-9
 CH2OH           4.317-15
 CH4             4.5202-3
 CH3OH           2.732-10
 *CO             2.1003-1
 *CO2            9.8524-3
 COOH            1.446-13
 C2H2,acetylene  1.1303-9
 CH2CO,ketene    1.4946-9
 O(CH)2O         1.368-16
 C2H3,vinyl      1.421-15
 CH3CN           1.1269-8
 CH3CO,acetyl    1.909-14
 C2H4            5.8059-8
 CH3CHO,ethanal  5.455-11
 CH3COOH         6.409-13
 C2H5            1.216-13
 C2H6            1.9917-8
 C2H5OH          2.170-14
 C2N2            3.349-14
 C3H3,2-propynl  4.000-16
 C3H4,allene     1.026-13
 C3H4,propyne    3.664-13
 C3H5,allyl      2.204-15
 C3H6,propylene  7.294-12
 C3H6,cyclo-     3.999-15
 C3H6O,acetone   7.652-15
 C3H6O,propanal  6.790-16
 C3H8            3.365-13
 C3O2            9.844-15
 C4H6,butadiene  1.030-15
 C4H8,1-butene   1.160-16
 C4H8,isobutene  1.397-16
 C6H6            8.051-16
 *H              4.1424-9
 HCN             4.8721-6
 HCO             1.780-11
 HNC             8.1409-9
 HNCO            6.3803-8
 *H2             2.7453-1
 HCHO,formaldehy 3.2295-8
 HCOOH           2.4059-9
 H2O             1.0932-2
 NH2             9.807-13
 NH3             4.2886-5
 *NO             1.219-15
 *N2             4.5265-1
 *OH             6.658-13
 C(gr)           3.7437-2

  * THERMODYNAMIC PROPERTIES FITTED TO 20000.K









         THERMODYNAMIC EQUILIBRIUM COMBUSTION PROPERTIES AT ASSIGNED

                                   PRESSURES

 CASE =                

             REACTANT                       MOLES         ENERGY      TEMP
                                                         KJ/KG-MOL      K
 FUEL        C8H18,isooctane              1.0000000   -223660.458    300.000
 OXIDANT     O2                          12.5000000        54.358    300.000
 OXIDANT     N2                          47.0238000        53.881    300.000

 O/F=    4.29535  %FUEL= 18.884481  R,EQ.RATIO= 3.500000  PHI,EQ.RATIO= 3.500000

 THERMODYNAMIC PROPERTIES

 P, BAR            1.0000
 T, K             1043.93
 RHO, KG/CU M    2.4233-1
 H, KJ/KG         -368.24
 U, KJ/KG         -780.90
 G, KJ/KG        -11514.0
 S, KJ/(KG)(K)    10.6767

 M, (1/n)          21.034
 MW, MOL WT        20.070
 (dLV/dLP)t      -1.02332
 (dLV/dLT)p        1.3735
 Cp, KJ/(KG)(K)    4.0893
 GAMMAs            1.1891
 SON VEL,M/SEC      700.5

 MOLE FRACTIONS

 CH3             1.1608-9
 CH2OH           4.083-15
 CH4             4.9110-3
 CH3OH           2.941-10
 *CO             2.0427-1
 *CO2            1.0473-2
 COOH            1.385-13
 C2H2,acetylene  9.887-10
 CH2CO,ketene    1.4268-9
 O(CH)2O         1.321-16
 C2H3,vinyl      1.204-15
 CH3CN           1.1032-8
 CH3CO,acetyl    1.796-14
 C2H4            5.8188-8
 CH3CHO,ethanal  5.740-11
 CH3COOH         7.278-13
 C2H5            1.181-13
 C2H6            2.2245-8
 C2H5OH          2.434-14
 C2N2            2.705-14
 C3H3,2-propynl  3.311-16
 C3H4,allene     9.400-14
 C3H4,propyne    3.371-13
 C3H5,allyl      2.074-15
 C3H6,propylene  7.622-12
 C3H6,cyclo-     4.091-15
 C3H6O,acetone   8.498-15
 C3H6O,propanal  7.371-16
 C3H8            3.887-13
 C3O2            8.632-15
 C4H6,butadiene  1.011-15
 C4H8,1-butene   1.254-16
 C4H8,tr2-butene 1.031-16
 C4H8,isobutene  1.526-16
 C6H6            8.083-16
 *H              3.5972-9
 HCN             4.4685-6
 HCO             1.587-11
 HNC             7.1756-9
 HNCO            6.2744-8
 *H2             2.7694-1
 HCHO,formaldehy 3.2078-8
 HCOOH           2.5843-9
 H2O             1.1793-2
 NH2             8.772-13
 NH3             4.5052-5
 *NO             1.038-15
 *N2             4.4577-1
 *OH             5.944-13
 C(gr)           4.5791-2

  * THERMODYNAMIC PROPERTIES FITTED TO 20000.K









         THERMODYNAMIC EQUILIBRIUM COMBUSTION PROPERTIES AT ASSIGNED

                                   PRESSURES

 CASE =                

             REACTANT                       MOLES         ENERGY      TEMP
                                                         KJ/KG-MOL      K
 FUEL        C8H18,isooctane              1.0000000   -223660.458    300.000
 OXIDANT     O2                          12.5000000        54.358    300.000
 OXIDANT     N2                          47.0238000        53.881    300.000

 O/F=    4.17604  %FUEL= 19.319796  R,EQ.RATIO= 3.600000  PHI,EQ.RATIO= 3.600000

 THERMODYNAMIC PROPERTIES

 P, BAR            1.0000
 T, K             1038.48
 RHO, KG/CU M    2.4333-1
 H, KJ/KG         -376.77
 U, KJ/KG         -787.74
 G, KJ/KG        -11468.3
 S, KJ/(KG)(K)    10.6805

 M, (1/n)          21.010
 MW, MOL WT        19.878
 (dLV/dLP)t      -1.02476
 (dLV/dLT)p        1.3975
 Cp, KJ/(KG)(K)    4.2707
 GAMMAs            1.1851
 SON VEL,M/SEC      697.9

 MOLE FRACTIONS

 CH3             1.0857-9
 CH2OH           3.867-15
 CH4             5.3141-3
 CH3OH           3.152-10
 *CO             1.9866-1
 *CO2            1.1073-2
 COOH            1.326-13
 C2H2,acetylene  8.703-10
 CH2CO,ketene    1.3633-9
 O(CH)2O         1.275-16
 C2H3,vinyl      1.028-15
 CH3CN           1.0808-8
 CH3CO,acetyl    1.693-14
 C2H4            5.8306-8
 CH3CHO,ethanal  6.017-11
 CH3COOH         8.197-13
 C2H5            1.148-13
 C2H6            2.4716-8
 C2H5OH          2.713-14
 C2N2            2.206-14
 C3H3,2-propynl  2.764-16
 C3H4,allene     8.648-14
 C3H4,propyne    3.113-13
 C3H5,allyl      1.958-15
 C3H6,propylene  7.947-12
 C3H6,cyclo-     4.181-15
 C3H6O,acetone   9.380-15
 C3H6O,propanal  7.962-16
 C3H8            4.459-13
 C3O2            7.598-15
 C4H6,butadiene  9.943-16
 C4H8,1-butene   1.350-16
 C4H8,tr2-butene 1.118-16
 C4H8,isobutene  1.659-16
 C6H6            8.114-16
 *H              3.1443-9
 HCN             4.1140-6
 HCO             1.422-11
 HNC             6.3609-9
 HNCO            6.1666-8
 *H2             2.7922-1
 HCHO,formaldehy 3.1832-8
 HCOOH           2.7601-9
 H2O             1.2661-2
 NH2             7.886-13
 NH3             4.7206-5
 *NO             8.899-16
 *N2             4.3912-1
 *OH             5.329-13
 C(gr)           5.3902-2

  * THERMODYNAMIC PROPERTIES FITTED TO 20000.K



