
 *******************************************************************************

         NASA-GLENN CHEMICAL EQUILIBRIUM PROGRAM CEA2, MAY 21, 2004
                   BY  BONNIE MCBRIDE AND SANFORD GORDON
      REFS: NASA RP-1311, PART I, 1994 AND NASA RP-1311, PART II, 1996

 *******************************************************************************



 problem    phi,eq.ratio=0.5,0.6,0.7,0.8,0.9,1,1.1,1.2,1.3,1.4,1.5,1.6,1.7,1.8,1.
 9,2,
       hp   p,bar=1,  t,k=3800
 react
   fuel=CH3OH moles=1  t,k=300
   oxid=O2 moles=1.5  t,k=300
   oxid=N2 moles=5.6429  t,k=300
 output  short   trace=1e-16
 end




         THERMODYNAMIC EQUILIBRIUM COMBUSTION PROPERTIES AT ASSIGNED

                                   PRESSURES

 CASE =                

             REACTANT                       MOLES         ENERGY      TEMP
                                                         KJ/KG-MOL      K
 FUEL        CH3OH                        1.0000000   -200858.418    300.000
 OXIDANT     O2                           1.5000000        54.358    300.000
 OXIDANT     N2                           5.6429000        53.881    300.000

 O/F=   12.86286  %FUEL=  7.213518  R,EQ.RATIO= 0.571429  PHI,EQ.RATIO= 0.500000

 THERMODYNAMIC PROPERTIES

 P, BAR            1.0000
 T, K             1538.07
 RHO, KG/CU M    2.2003-1
 H, KJ/KG         -450.45
 U, KJ/KG         -904.94
 G, KJ/KG        -14456.5
 S, KJ/(KG)(K)     9.1062

 M, (1/n)          28.138
 (dLV/dLP)t      -1.00001
 (dLV/dLT)p        1.0004
 Cp, KJ/(KG)(K)    1.3788
 GAMMAs            1.2730
 SON VEL,M/SEC      760.6

 MOLE FRACTIONS

 *CO             1.7572-6
 *CO2            6.3344-2
 COOH            1.273-12
 *H              3.1143-8
 HNCO            1.040-15
 HNO             3.163-10
 HNO2            4.0427-8
 HNO3            1.959-11
 HO2             1.6392-7
 *H2             1.2788-6
 HCOOH           1.095-13
 H2O             1.2663-1
 H2O2            1.0120-8
 *N              1.327-13
 *NH             7.943-15
 NH2             4.551-15
 NH3             6.806-14
 *NO             9.3731-4
 NO2             3.0257-6
 NO3             1.325-12
 *N2             7.1444-1
 N2O             5.4264-8
 N2O3            9.429-15
 *O              2.0647-6
 *OH             1.1713-4
 *O2             9.4519-2
 O3              1.227-10

  * THERMODYNAMIC PROPERTIES FITTED TO 20000.K









         THERMODYNAMIC EQUILIBRIUM COMBUSTION PROPERTIES AT ASSIGNED

                                   PRESSURES

 CASE =                

             REACTANT                       MOLES         ENERGY      TEMP
                                                         KJ/KG-MOL      K
 FUEL        CH3OH                        1.0000000   -200858.418    300.000
 OXIDANT     O2                           1.5000000        54.358    300.000
 OXIDANT     N2                           5.6429000        53.881    300.000

 O/F=   10.71905  %FUEL=  8.533114  R,EQ.RATIO= 0.666667  PHI,EQ.RATIO= 0.600000

 THERMODYNAMIC PROPERTIES

 P, BAR            1.0000
 T, K             1717.48
 RHO, KG/CU M    1.9614-1
 H, KJ/KG         -533.20
 U, KJ/KG        -1043.04
 G, KJ/KG        -16550.4
 S, KJ/(KG)(K)     9.3260

 M, (1/n)          28.009
 (dLV/dLP)t      -1.00004
 (dLV/dLT)p        1.0017
 Cp, KJ/(KG)(K)    1.4503
 GAMMAs            1.2584
 SON VEL,M/SEC      801.0

 MOLE FRACTIONS

 *CO             2.3041-5
 *CO2            7.4567-2
 COOH            2.059-11
 *H              6.3060-7
 HCO             1.078-14
 HNCO            4.118-14
 HNO             1.9985-9
 HNO2            5.3361-8
 HNO3            1.500-11
 HO2             4.3714-7
 *H2             1.3196-5
 HCHO,formaldehy 1.299-16
 HCOOH           1.509-12
 H2O             1.4894-1
 H2O2            2.5567-8
 *N              6.568-12
 NCO             6.807-16
 *NH             4.665-13
 NH2             2.087-13
 NH3             1.412-12
 NH2OH           5.448-16
 *NO             1.7298-3
 NO2             3.1031-6
 NO3             1.707-12
 *N2             7.0064-1
 N2O             9.5267-8
 N2O3            1.407-14
 *O              1.4565-5
 *OH             4.4374-4
 *O2             7.3621-2
 O3              2.766-10

  * THERMODYNAMIC PROPERTIES FITTED TO 20000.K









         THERMODYNAMIC EQUILIBRIUM COMBUSTION PROPERTIES AT ASSIGNED

                                   PRESSURES

 CASE =                

             REACTANT                       MOLES         ENERGY      TEMP
                                                         KJ/KG-MOL      K
 FUEL        CH3OH                        1.0000000   -200858.418    300.000
 OXIDANT     O2                           1.5000000        54.358    300.000
 OXIDANT     N2                           5.6429000        53.881    300.000

 O/F=    9.18776  %FUEL=  9.815702  R,EQ.RATIO= 0.756757  PHI,EQ.RATIO= 0.700000

 THERMODYNAMIC PROPERTIES

 P, BAR            1.0000
 T, K             1879.98
 RHO, KG/CU M    1.7835-1
 H, KJ/KG         -613.62
 U, KJ/KG        -1174.32
 G, KJ/KG        -18515.0
 S, KJ/(KG)(K)     9.5221

 M, (1/n)          27.878
 (dLV/dLP)t      -1.00015
 (dLV/dLT)p        1.0057
 Cp, KJ/(KG)(K)    1.5415
 GAMMAs            1.2430
 SON VEL,M/SEC      834.8

 MOLE FRACTIONS

 *CO             1.6726-4
 *CO2            8.5235-2
 COOH            1.711-10
 *H              6.1337-6
 HCN             1.170-15
 HCO             4.829-13
 HNCO            7.090-13
 HNO             7.6533-9
 HNO2            5.9838-8
 HNO3            1.054-11
 HO2             8.2333-7
 *H2             8.0829-5
 HCHO,formaldehy 5.653-15
 HCOOH           1.170-11
 H2O             1.7014-1
 H2O2            4.8278-8
 *N              1.184-10
 NCO             2.218-14
 *NH             9.924-12
 NH2             3.854-12
 NH3             1.510-11
 NH2OH           5.100-15
 *NO             2.5395-3
 NO2             2.7617-6
 NO3             1.690-12
 *N2             6.8718-1
 N2O             1.3531-7
 N2O3            1.553-14
 N3              2.010-16
 *O              5.8038-5
 *OH             1.1582-3
 *O2             5.3435-2
 O3              4.148-10

  * THERMODYNAMIC PROPERTIES FITTED TO 20000.K









         THERMODYNAMIC EQUILIBRIUM COMBUSTION PROPERTIES AT ASSIGNED

                                   PRESSURES

 CASE =                

             REACTANT                       MOLES         ENERGY      TEMP
                                                         KJ/KG-MOL      K
 FUEL        CH3OH                        1.0000000   -200858.418    300.000
 OXIDANT     O2                           1.5000000        54.358    300.000
 OXIDANT     N2                           5.6429000        53.881    300.000

 O/F=    8.03929  %FUEL= 11.062817  R,EQ.RATIO= 0.842105  PHI,EQ.RATIO= 0.800000

 THERMODYNAMIC PROPERTIES

 P, BAR            1.0000
 T, K             2024.28
 RHO, KG/CU M    1.6480-1
 H, KJ/KG         -691.82
 U, KJ/KG        -1298.60
 G, KJ/KG        -20325.8
 S, KJ/(KG)(K)     9.6993

 M, (1/n)          27.738
 (dLV/dLP)t      -1.00049
 (dLV/dLT)p        1.0165
 Cp, KJ/(KG)(K)    1.6873
 GAMMAs            1.2241
 SON VEL,M/SEC      861.8

 MOLE FRACTIONS

 *CN             1.148-16
 *CO             8.2631-4
 *CO2            9.4943-2
 COOH            8.984-10
 *H              3.6108-5
 HCN             4.625-14
 HCO             9.952-12
 HNC             2.440-15
 HNCO            7.112-12
 HNO             2.0179-8
 HNO2            5.6500-8
 HNO3            6.352-12
 HO2             1.1481-6
 *H2             3.5421-4
 HCHO,formaldehy 1.208-13
 HCOOH           6.201-11
 H2O             1.9002-1
 H2O2            7.1392-8
 *N              1.0462-9
 NCO             3.404-13
 *NH             1.049-10
 NH2             3.872-11
 NH3             1.065-10
 NH2OH           2.958-14
 *NO             3.0598-3
 NO2             2.0678-6
 NO3             1.244-12
 *N2             6.7399-1
 N2H2            8.235-16
 N2O             1.5936-7
 N2O3            1.239-14
 N3              1.468-15
 N3H             2.206-16
 *O              1.4897-4
 *OH             2.2805-3
 *O2             3.4335-2
 O3              4.189-10

  * THERMODYNAMIC PROPERTIES FITTED TO 20000.K









         THERMODYNAMIC EQUILIBRIUM COMBUSTION PROPERTIES AT ASSIGNED

                                   PRESSURES

 CASE =                

             REACTANT                       MOLES         ENERGY      TEMP
                                                         KJ/KG-MOL      K
 FUEL        CH3OH                        1.0000000   -200858.418    300.000
 OXIDANT     O2                           1.5000000        54.358    300.000
 OXIDANT     N2                           5.6429000        53.881    300.000

 O/F=    7.14603  %FUEL= 12.275912  R,EQ.RATIO= 0.923077  PHI,EQ.RATIO= 0.900000

 THERMODYNAMIC PROPERTIES

 P, BAR            1.0000
 T, K             2144.09
 RHO, KG/CU M    1.5465-1
 H, KJ/KG         -767.89
 U, KJ/KG        -1414.53
 G, KJ/KG        -21909.2
 S, KJ/(KG)(K)     9.8603

 M, (1/n)          27.569
 (dLV/dLP)t      -1.00140
 (dLV/dLT)p        1.0434
 Cp, KJ/(KG)(K)    1.9622
 GAMMAs            1.1990
 SON VEL,M/SEC      880.5

 MOLE FRACTIONS

 *CN             3.797-15
 *CO             3.1475-3
 *CO2            1.0247-1
 COOH            3.2985-9
 *H              1.4458-4
 HCN             1.053-12
 HCO             1.180-10
 HNC             6.830-14
 HNCO            4.989-11
 HNO             3.7610-8
 HNO2            4.1643-8
 HNO3            2.827-12
 HO2             1.1251-6
 *H2             1.2563-3
 HCHO,formaldehy 1.621-12
 HCOOH           2.528-10
 H2O             2.0820-1
 H2O2            8.0344-8
 *N              5.1019-9
 NCO             2.959-12
 *NH             6.400-10
 NH2             2.506-10
 NH3             5.861-10
 NH2OH           1.186-13
 *NO             2.9217-3
 NO2             1.1690-6
 NO3             5.819-13
 *N2             6.6078-1
 N2H2            5.836-15
 N2O             1.4966-7
 N2O3            6.135-15
 N3              6.205-15
 N3H             1.087-15
 *O              2.4761-4
 *OH             3.4326-3
 *O2             1.7397-2
 O3              2.478-10

  * THERMODYNAMIC PROPERTIES FITTED TO 20000.K









         THERMODYNAMIC EQUILIBRIUM COMBUSTION PROPERTIES AT ASSIGNED

                                   PRESSURES

 CASE =                

             REACTANT                       MOLES         ENERGY      TEMP
                                                         KJ/KG-MOL      K
 FUEL        CH3OH                        1.0000000   -200858.418    300.000
 OXIDANT     O2                           1.5000000        54.358    300.000
 OXIDANT     N2                           5.6429000        53.881    300.000

 O/F=    6.43143  %FUEL= 13.456358  R,EQ.RATIO= 1.000000  PHI,EQ.RATIO= 1.000000

 THERMODYNAMIC PROPERTIES

 P, BAR            1.0000
 T, K             2219.81
 RHO, KG/CU M    1.4803-1
 H, KJ/KG         -841.91
 U, KJ/KG        -1517.44
 G, KJ/KG        -23054.9
 S, KJ/(KG)(K)    10.0067

 M, (1/n)          27.322
 (dLV/dLP)t      -1.00275
 (dLV/dLT)p        1.0825
 Cp, KJ/(KG)(K)    2.3324
 GAMMAs            1.1767
 SON VEL,M/SEC      891.6

 MOLE FRACTIONS

 *CN             6.307-14
 *CO             1.0022-2
 *CO2            1.0472-1
 COOH            8.4600-9
 *H              3.9887-4
 HCN             1.749-11
 HCO             8.965-10
 HNC             1.277-12
 HNCO            2.787-10
 HNO             4.4096-8
 HNO2            1.8956-8
 HNO3            6.385-13
 HO2             6.0622-7
 *H2             4.0031-3
 HCHO,formaldehy 1.640-11
 HCOOH           8.547-10
 H2O             2.2349-1
 H2O2            5.8117-8
 *N              1.2656-8
 NCO             1.510-11
 *NH             2.2384-9
 NH2             1.1242-9
 NH3             2.9682-9
 NH2OH           3.324-13
 *NO             1.8767-3
 NO2             3.6831-7
 NO3             1.091-13
 *N2             6.4653-1
 N2H2            2.750-14
 N2O             9.4847-8
 N2O3            1.183-15
 N3              1.404-14
 N3H             3.331-15
 *O              2.2015-4
 *OH             3.5701-3
 *O2             5.1705-3
 O3              5.355-11

  * THERMODYNAMIC PROPERTIES FITTED TO 20000.K









         THERMODYNAMIC EQUILIBRIUM COMBUSTION PROPERTIES AT ASSIGNED

                                   PRESSURES

 CASE =                

             REACTANT                       MOLES         ENERGY      TEMP
                                                         KJ/KG-MOL      K
 FUEL        CH3OH                        1.0000000   -200858.418    300.000
 OXIDANT     O2                           1.5000000        54.358    300.000
 OXIDANT     N2                           5.6429000        53.881    300.000

 O/F=    5.84676  %FUEL= 14.605458  R,EQ.RATIO= 1.073171  PHI,EQ.RATIO= 1.100000

 THERMODYNAMIC PROPERTIES

 P, BAR            1.0000
 T, K             2214.96
 RHO, KG/CU M    1.4616-1
 H, KJ/KG         -913.96
 U, KJ/KG        -1598.13
 G, KJ/KG        -23371.2
 S, KJ/(KG)(K)    10.1389

 M, (1/n)          26.918
 (dLV/dLP)t      -1.00148
 (dLV/dLT)p        1.0450
 Cp, KJ/(KG)(K)    2.0168
 GAMMAs            1.1987
 SON VEL,M/SEC      905.6

 MOLE FRACTIONS

 *C              1.308-16
 CH2             2.304-16
 CH3             2.380-15
 CH2OH           7.261-16
 CH4             2.170-15
 *CN             4.043-13
 *CO             2.5073-2
 *CO2            9.7625-2
 COOH            1.2929-8
 *H              6.5005-4
 HCN             1.945-10
 HCO             3.6880-9
 HNC             1.411-11
 HNCO            1.1521-9
 HNO             2.5944-8
 HNO2            4.1076-9
 HNO3            5.019-14
 HO2             1.3188-7
 *H2             1.1222-2
 HCHO,formaldehy 1.150-10
 HCOOH           2.2284-9
 H2O             2.3278-1
 H2O2            2.1545-8
 *N              1.1793-8
 NCO             3.616-11
 *NH             3.5436-9
 NH2             3.0414-9
 NH3             1.3832-8
 NH2OH           5.580-13
 *NO             6.6044-4
 NO2             4.7048-8
 NO3             4.999-15
 *N2             6.2910-1
 N2H2            7.312-14
 N2O             3.2929-8
 N3              1.278-14
 N3H             5.166-15
 *O              7.7026-5
 *OH             2.1468-3
 *O2             6.7246-4
 O3              2.467-12

  * THERMODYNAMIC PROPERTIES FITTED TO 20000.K









         THERMODYNAMIC EQUILIBRIUM COMBUSTION PROPERTIES AT ASSIGNED

                                   PRESSURES

 CASE =                

             REACTANT                       MOLES         ENERGY      TEMP
                                                         KJ/KG-MOL      K
 FUEL        CH3OH                        1.0000000   -200858.418    300.000
 OXIDANT     O2                           1.5000000        54.358    300.000
 OXIDANT     N2                           5.6429000        53.881    300.000

 O/F=    5.35953  %FUEL= 15.724443  R,EQ.RATIO= 1.142857  PHI,EQ.RATIO= 1.200000

 THERMODYNAMIC PROPERTIES

 P, BAR            1.0000
 T, K             2157.98
 RHO, KG/CU M    1.4729-1
 H, KJ/KG         -984.13
 U, KJ/KG        -1663.05
 G, KJ/KG        -23121.3
 S, KJ/(KG)(K)    10.2583

 M, (1/n)          26.428
 (dLV/dLP)t      -1.00057
 (dLV/dLT)p        1.0173
 Cp, KJ/(KG)(K)    1.7750
 GAMMAs            1.2238
 SON VEL,M/SEC      911.5

 MOLE FRACTIONS

 *C              1.919-16
 CH2             1.103-15
 CH3             2.304-14
 CH2OH           3.123-15
 CH3O            3.643-16
 CH4             4.083-14
 CH3OH           7.793-16
 *CN             8.780-13
 *CO             4.2792-2
 *CO2            8.6902-2
 COOH            1.2656-8
 CH2CO,ketene    1.951-16
 C2O             1.374-16
 *H              6.6590-4
 HCN             9.260-10
 HCO             7.1902-9
 HNC             6.142-11
 HNCO            2.7609-9
 HNO             1.0967-8
 HNO2            7.852-10
 HNO3            3.610-15
 HO2             2.2752-8
 *H2             2.2615-2
 HCHO,formaldehy 3.965-10
 HCOOH           3.8864-9
 H2O             2.3593-1
 H2O2            6.5324-9
 *N              5.8293-9
 NCO             4.232-11
 *NH             2.9675-9
 NH2             4.6324-9
 NH3             4.2153-8
 NH2OH           5.897-13
 *NO             1.9998-4
 NO2             5.4068-9
 NO3             1.886-16
 *N2             6.0978-1
 N2H2            1.048-13
 N2O             9.8353-9
 N3              6.456-15
 N3H             4.555-15
 *O              1.8720-5
 *OH             1.0167-3
 *O2             8.2678-5
 O3              8.572-14

  * THERMODYNAMIC PROPERTIES FITTED TO 20000.K









         THERMODYNAMIC EQUILIBRIUM COMBUSTION PROPERTIES AT ASSIGNED

                                   PRESSURES

 CASE =                

             REACTANT                       MOLES         ENERGY      TEMP
                                                         KJ/KG-MOL      K
 FUEL        CH3OH                        1.0000000   -200858.418    300.000
 OXIDANT     O2                           1.5000000        54.358    300.000
 OXIDANT     N2                           5.6429000        53.881    300.000

 O/F=    4.94725  %FUEL= 16.814481  R,EQ.RATIO= 1.209302  PHI,EQ.RATIO= 1.300000

 THERMODYNAMIC PROPERTIES

 P, BAR            1.0000
 T, K             2092.51
 RHO, KG/CU M    1.4912-1
 H, KJ/KG        -1052.48
 U, KJ/KG        -1723.07
 G, KJ/KG        -22747.7
 S, KJ/(KG)(K)    10.3680

 M, (1/n)          25.945
 (dLV/dLP)t      -1.00030
 (dLV/dLT)p        1.0090
 Cp, KJ/(KG)(K)    1.7116
 GAMMAs            1.2350
 SON VEL,M/SEC      910.1

 MOLE FRACTIONS

 *C              1.503-16
 *CH             1.102-16
 CH2             2.470-15
 CH3             1.001-13
 CH2OH           7.327-15
 CH3O            7.943-16
 CH4             3.282-13
 CH3OH           3.198-15
 *CN             1.111-12
 *CO             5.8333-2
 *CO2            7.7815-2
 COOH            1.0480-8
 CH2CO,ketene    1.041-15
 C2O             2.520-16
 *H              5.6510-4
 HCN             2.5081-9
 HCO             9.4944-9
 HNC             1.493-10
 HNCO            4.7027-9
 HNO             4.6134-9
 HNO2            1.822-10
 HNO3            3.700-16
 HO2             4.6441-9
 *H2             3.5985-2
 HCHO,formaldehy 8.628-10
 HCOOH           5.3545-9
 H2O             2.3578-1
 H2O2            2.1808-9
 *N              2.4836-9
 NCO             3.662-11
 *NH             1.9769-9
 NH2             5.2623-9
 NH3             9.1703-8
 NH2OH           5.131-13
 *NO             6.7996-5
 NO2             8.202-10
 *N2             5.9094-1
 N2H2            1.111-13
 N2O             3.3021-9
 N3              2.843-15
 N3H             3.255-15
 *O              4.8571-6
 *OH             4.8890-4
 *O2             1.3568-5
 O3              4.390-15

  * THERMODYNAMIC PROPERTIES FITTED TO 20000.K









         THERMODYNAMIC EQUILIBRIUM COMBUSTION PROPERTIES AT ASSIGNED

                                   PRESSURES

 CASE =                

             REACTANT                       MOLES         ENERGY      TEMP
                                                         KJ/KG-MOL      K
 FUEL        CH3OH                        1.0000000   -200858.418    300.000
 OXIDANT     O2                           1.5000000        54.358    300.000
 OXIDANT     N2                           5.6429000        53.881    300.000

 O/F=    4.59388  %FUEL= 17.876682  R,EQ.RATIO= 1.272727  PHI,EQ.RATIO= 1.400000

 THERMODYNAMIC PROPERTIES

 P, BAR            1.0000
 T, K             2027.96
 RHO, KG/CU M    1.5114-1
 H, KJ/KG        -1119.09
 U, KJ/KG        -1780.72
 G, KJ/KG        -22351.6
 S, KJ/(KG)(K)    10.4699

 M, (1/n)          25.485
 (dLV/dLP)t      -1.00018
 (dLV/dLT)p        1.0054
 Cp, KJ/(KG)(K)    1.6935
 GAMMAs            1.2416
 SON VEL,M/SEC      906.3

 MOLE FRACTIONS

 CH2             3.797-15
 CH3             2.859-13
 CH2OH           1.265-14
 CH3O            1.271-15
 CH4             1.661-12
 CH3OH           9.211-15
 *CN             1.093-12
 *CO             7.1429-2
 *CO2            7.0755-2
 COOH            8.1395-9
 C2H2,acetylene  1.225-16
 CH2CO,ketene    3.523-15
 C2O             3.236-16
 *H              4.4128-4
 HCN             5.0838-9
 HCO             1.0428-8
 HNC             2.700-10
 HNCO            6.7578-9
 HNO             1.9930-9
 HNO2            4.863-11
 HO2             1.0814-9
 *H2             5.0375-2
 HCHO,formaldehy 1.4851-9
 HCOOH           6.5851-9
 H2O             2.3365-1
 H2O2            7.891-10
 *N              1.0160-9
 NCO             2.788-11
 *NH             1.1983-9
 NH2             5.1792-9
 NH3             1.6552-7
 NH2OH           4.088-13
 *NO             2.5313-5
 NO2             1.510-10
 *N2             5.7308-1
 N2H2            1.019-13
 N2O             1.2153-9
 N3              1.207-15
 N3H             2.130-15
 *O              1.3603-6
 *OH             2.4250-4
 *O2             2.7095-6
 O3              2.984-16

  * THERMODYNAMIC PROPERTIES FITTED TO 20000.K









         THERMODYNAMIC EQUILIBRIUM COMBUSTION PROPERTIES AT ASSIGNED

                                   PRESSURES

 CASE =                

             REACTANT                       MOLES         ENERGY      TEMP
                                                         KJ/KG-MOL      K
 FUEL        CH3OH                        1.0000000   -200858.418    300.000
 OXIDANT     O2                           1.5000000        54.358    300.000
 OXIDANT     N2                           5.6429000        53.881    300.000

 O/F=    4.28762  %FUEL= 18.912098  R,EQ.RATIO= 1.333333  PHI,EQ.RATIO= 1.500000

 THERMODYNAMIC PROPERTIES

 P, BAR            1.0000
 T, K             1965.94
 RHO, KG/CU M    1.5325-1
 H, KJ/KG        -1184.01
 U, KJ/KG        -1836.54
 G, KJ/KG        -21954.5
 S, KJ/(KG)(K)    10.5652

 M, (1/n)          25.050
 (dLV/dLP)t      -1.00012
 (dLV/dLT)p        1.0035
 Cp, KJ/(KG)(K)    1.6906
 GAMMAs            1.2462
 SON VEL,M/SEC      901.8

 MOLE FRACTIONS

 CH2             4.693-15
 CH3             6.383-13
 CH2OH           1.828-14
 CH3O            1.702-15
 CH4             6.388-12
 CH3OH           2.154-14
 *CN             9.326-13
 *CO             8.2510-2
 *CO2            6.5342-2
 COOH            6.1312-9
 C2H2,acetylene  3.973-16
 CH2CO,ketene    9.176-15
 C2O             3.405-16
 *H              3.2850-4
 HCN             8.7106-9
 HCO             1.0330-8
 HCCO            1.100-16
 HNC             4.118-10
 HNCO            8.8232-9
 HNO             8.784-10
 HNO2            1.418-11
 HO2             2.740-10
 *H2             6.5251-2
 HCHO,formaldehy 2.2328-9
 HCOOH           7.6111-9
 H2O             2.3023-1
 H2O2            3.007-10
 *N              4.077-10
 NCO             1.984-11
 *NH             6.888-10
 NH2             4.6832-9
 NH3             2.6670-7
 NH2OH           3.096-13
 *NO             9.9888-6
 NO2             3.145-11
 *N2             5.5621-1
 N2H2            8.597-14
 N2O             4.748-10
 N3              5.042-16
 N3H             1.327-15
 *O              4.0105-7
 *OH             1.2287-4
 *O2             6.1219-7

  * THERMODYNAMIC PROPERTIES FITTED TO 20000.K









         THERMODYNAMIC EQUILIBRIUM COMBUSTION PROPERTIES AT ASSIGNED

                                   PRESSURES

 CASE =                

             REACTANT                       MOLES         ENERGY      TEMP
                                                         KJ/KG-MOL      K
 FUEL        CH3OH                        1.0000000   -200858.418    300.000
 OXIDANT     O2                           1.5000000        54.358    300.000
 OXIDANT     N2                           5.6429000        53.881    300.000

 O/F=    4.01964  %FUEL= 19.921730  R,EQ.RATIO= 1.391304  PHI,EQ.RATIO= 1.600000

 THERMODYNAMIC PROPERTIES

 P, BAR            1.0000
 T, K             1906.69
 RHO, KG/CU M    1.5542-1
 H, KJ/KG        -1247.32
 U, KJ/KG        -1890.74
 G, KJ/KG        -21562.5
 S, KJ/(KG)(K)    10.6547

 M, (1/n)          24.639
 (dLV/dLP)t      -1.00008
 (dLV/dLT)p        1.0023
 Cp, KJ/(KG)(K)    1.6944
 GAMMAs            1.2500
 SON VEL,M/SEC      896.8

 MOLE FRACTIONS

 CH2             5.032-15
 CH3             1.214-12
 CH2OH           2.355-14
 CH3O            2.029-15
 CH4             2.055-11
 CH3OH           4.403-14
 *CN             7.260-13
 *CO             9.1997-2
 *CO2            6.1194-2
 COOH            4.5400-9
 C2H2,acetylene  1.039-15
 CH2CO,ketene    2.022-14
 C2O             3.159-16
 *H              2.3680-4
 HCN             1.3396-8
 HCO             9.5836-9
 HCCO            1.414-16
 HNC             5.626-10
 HNCO            1.0849-8
 HNO             3.921-10
 HNO2            4.385-12
 HO2             7.333-11
 *H2             8.0260-2
 HCHO,formaldehy 3.0790-9
 HCOOH           8.4739-9
 H2O             2.2597-1
 H2O2            1.185-10
 *N              1.614-10
 NCO             1.354-11
 *NH             3.819-10
 NH2             4.0015-9
 NH3             3.9861-7
 NH2OH           2.266-13
 *NO             4.0949-6
 NO2             7.095-12
 *N2             5.4027-1
 N2H2            6.860-14
 N2O             1.929-10
 N3              2.082-16
 N3H             8.001-16
 *O              1.2222-7
 *OH             6.3100-5
 *O2             1.4998-7

  * THERMODYNAMIC PROPERTIES FITTED TO 20000.K









         THERMODYNAMIC EQUILIBRIUM COMBUSTION PROPERTIES AT ASSIGNED

                                   PRESSURES

 CASE =                

             REACTANT                       MOLES         ENERGY      TEMP
                                                         KJ/KG-MOL      K
 FUEL        CH3OH                        1.0000000   -200858.418    300.000
 OXIDANT     O2                           1.5000000        54.358    300.000
 OXIDANT     N2                           5.6429000        53.881    300.000

 O/F=    3.78319  %FUEL= 20.906529  R,EQ.RATIO= 1.446809  PHI,EQ.RATIO= 1.700000

 THERMODYNAMIC PROPERTIES

 P, BAR            1.0000
 T, K             1850.16
 RHO, KG/CU M    1.5764-1
 H, KJ/KG        -1309.07
 U, KJ/KG        -1943.42
 G, KJ/KG        -21177.9
 S, KJ/(KG)(K)    10.7390

 M, (1/n)          24.250
 (dLV/dLP)t      -1.00005
 (dLV/dLT)p        1.0015
 Cp, KJ/(KG)(K)    1.7016
 GAMMAs            1.2532
 SON VEL,M/SEC      891.6

 MOLE FRACTIONS

 CH2             4.881-15
 CH3             2.065-12
 CH2OH           2.800-14
 CH3O            2.233-15
 CH4             5.846-11
 CH3OH           8.200-14
 *CN             5.298-13
 *CO             1.0022-1
 *CO2            5.8008-2
 COOH            3.3252-9
 C2H2,acetylene  2.340-15
 CH2CO,ketene    3.978-14
 C2O             2.687-16
 *H              1.6665-4
 HCN             1.9124-8
 HCO             8.4964-9
 HCCO            1.641-16
 HNC             7.122-10
 HNCO            1.2811-8
 HNO             1.764-10
 HNO2            1.410-12
 HO2             2.035-11
 *H2             9.5172-2
 HCHO,formaldehy 4.0018-9
 HCOOH           9.2096-9
 H2O             2.2118-1
 H2O2            4.776-11
 *N              6.314-11
 NCO             8.979-12
 *NH             2.060-10
 NH2             3.2817-9
 NH3             5.6513-7
 NH2OH           1.618-13
 *NO             1.7217-6
 NO2             1.691-12
 *N2             5.2521-1
 N2H2            5.259-14
 N2O             8.049-11
 N3H             4.708-16
 *O              3.8025-8
 *OH             3.2663-5
 *O2             3.8809-8

  * THERMODYNAMIC PROPERTIES FITTED TO 20000.K









         THERMODYNAMIC EQUILIBRIUM COMBUSTION PROPERTIES AT ASSIGNED

                                   PRESSURES

 CASE =                

             REACTANT                       MOLES         ENERGY      TEMP
                                                         KJ/KG-MOL      K
 FUEL        CH3OH                        1.0000000   -200858.418    300.000
 OXIDANT     O2                           1.5000000        54.358    300.000
 OXIDANT     N2                           5.6429000        53.881    300.000

 O/F=    3.57302  %FUEL= 21.867400  R,EQ.RATIO= 1.500000  PHI,EQ.RATIO= 1.800000

 THERMODYNAMIC PROPERTIES

 P, BAR            1.0000
 T, K             1796.18
 RHO, KG/CU M    1.5992-1
 H, KJ/KG        -1369.32
 U, KJ/KG        -1994.65
 G, KJ/KG        -20801.3
 S, KJ/(KG)(K)    10.8185

 M, (1/n)          23.883
 (dLV/dLP)t      -1.00003
 (dLV/dLT)p        1.0010
 Cp, KJ/(KG)(K)    1.7108
 GAMMAs            1.2561
 SON VEL,M/SEC      886.3

 MOLE FRACTIONS

 CH2             4.394-15
 CH3             3.237-12
 CH2OH           3.139-14
 CH3O            2.317-15
 CH4             1.523-10
 CH3OH           1.429-13
 *CN             3.682-13
 *CO             1.0743-1
 *CO2            5.5562-2
 COOH            2.4167-9
 C2H2,acetylene  4.735-15
 CH2CO,ketene    7.211-14
 C2O             2.144-16
 *H              1.1508-4
 HCN             2.5869-8
 HCO             7.2846-9
 HCCO            1.768-16
 HNC             8.528-10
 HNCO            1.4702-8
 HNO             7.963-11
 HNO2            4.657-13
 HO2             5.785-12
 *H2             1.0984-1
 HCHO,formaldehy 4.9842-9
 HCOOH           9.8474-9
 H2O             2.1607-1
 H2O2            1.952-11
 *N              2.441-11
 NCO             5.826-12
 *NH             1.087-10
 NH2             2.6082-9
 NH3             7.7094-7
 NH2OH           1.134-13
 *NO             7.3609-7
 NO2             4.180-13
 *N2             5.1096-1
 N2H2            3.911-14
 N2O             3.419-11
 N3H             2.717-16
 *O              1.1977-8
 *OH             1.6978-5
 *O2             1.0425-8

  * THERMODYNAMIC PROPERTIES FITTED TO 20000.K









         THERMODYNAMIC EQUILIBRIUM COMBUSTION PROPERTIES AT ASSIGNED

                                   PRESSURES

 CASE =                

             REACTANT                       MOLES         ENERGY      TEMP
                                                         KJ/KG-MOL      K
 FUEL        CH3OH                        1.0000000   -200858.418    300.000
 OXIDANT     O2                           1.5000000        54.358    300.000
 OXIDANT     N2                           5.6429000        53.881    300.000

 O/F=    3.38496  %FUEL= 22.805206  R,EQ.RATIO= 1.551020  PHI,EQ.RATIO= 1.900000

 THERMODYNAMIC PROPERTIES

 P, BAR            1.0000
 T, K             1744.59
 RHO, KG/CU M    1.6224-1
 H, KJ/KG        -1428.13
 U, KJ/KG        -2044.49
 G, KJ/KG        -20433.2
 S, KJ/(KG)(K)    10.8938

 M, (1/n)          23.534
 (dLV/dLP)t      -1.00002
 (dLV/dLT)p        1.0007
 Cp, KJ/(KG)(K)    1.7211
 GAMMAs            1.2587
 SON VEL,M/SEC      880.8

 MOLE FRACTIONS

 CH2             3.732-15
 CH3             4.770-12
 CH2OH           3.366-14
 CH3O            2.298-15
 CH4             3.715-10
 CH3OH           2.369-13
 *CN             2.463-13
 *CO             1.1380-1
 *CO2            5.3694-2
 COOH            1.7458-9
 C2H2,acetylene  8.837-15
 CH2CO,ketene    1.230-13
 C2O             1.629-16
 *H              7.8216-5
 HCN             3.3605-8
 HCO             6.0858-9
 HCCO            1.801-16
 HNC             9.790-10
 HNCO            1.6521-8
 HNO             3.597-11
 HNO2            1.566-13
 HO2             1.669-12
 *H2             1.2418-1
 HCHO,formaldehy 6.0133-9
 HCOOH           1.0410-8
 H2O             2.1077-1
 H2O2            8.050-12
 *N              9.322-12
 NCO             3.716-12
 *NH             5.623-11
 NH2             2.0217-9
 NH3             1.0217-6
 NH2OH           7.822-14
 *NO             3.1810-7
 NO2             1.060-13
 *N2             4.9746-1
 N2H2            2.839-14
 N2O             1.469-11
 N3H             1.543-16
 *O              3.7964-9
 *OH             8.8373-6
 *O2             2.8732-9

  * THERMODYNAMIC PROPERTIES FITTED TO 20000.K









         THERMODYNAMIC EQUILIBRIUM COMBUSTION PROPERTIES AT ASSIGNED

                                   PRESSURES

 CASE =                

             REACTANT                       MOLES         ENERGY      TEMP
                                                         KJ/KG-MOL      K
 FUEL        CH3OH                        1.0000000   -200858.418    300.000
 OXIDANT     O2                           1.5000000        54.358    300.000
 OXIDANT     N2                           5.6429000        53.881    300.000

 O/F=    3.21572  %FUEL= 23.720766  R,EQ.RATIO= 1.600000  PHI,EQ.RATIO= 2.000000

 THERMODYNAMIC PROPERTIES

 P, BAR            1.0000
 T, K             1695.23
 RHO, KG/CU M    1.6462-1
 H, KJ/KG        -1485.54
 U, KJ/KG        -2093.00
 G, KJ/KG        -20073.7
 S, KJ/(KG)(K)    10.9649

 M, (1/n)          23.203
 (dLV/dLP)t      -1.00002
 (dLV/dLT)p        1.0005
 Cp, KJ/(KG)(K)    1.7322
 GAMMAs            1.2611
 SON VEL,M/SEC      875.3

 MOLE FRACTIONS

 CH2             3.024-15
 CH3             6.700-12
 CH2OH           3.484-14
 CH3O            2.201-15
 CH4             8.628-10
 CH3OH           3.783-13
 *CN             1.595-13
 *CO             1.1949-1
 *CO2            5.2286-2
 COOH            1.2545-9
 C2H2,acetylene  1.550-14
 CH2CO,ketene    2.005-13
 C2H4            1.098-16
 C2O             1.190-16
 *H              5.2434-5
 HCN             4.2309-8
 HCO             4.9789-9
 HCCO            1.754-16
 HNC             1.0873-9
 HNCO            1.8271-8
 HNO             1.623-11
 HNO2            5.331-14
 HO2             4.858-13
 *H2             1.3815-1
 HCHO,formaldehy 7.0790-9
 HCOOH           1.0915-8
 H2O             2.0537-1
 H2O2            3.335-12
 *N              3.517-12
 NCO             2.335-12
 *NH             2.859-11
 NH2             1.5349-9
 NH3             1.3243-6
 NH2OH           5.328-14
 *NO             1.3834-7
 NO2             2.734-14
 *N2             4.8465-1
 N2H2            2.021-14
 N2O             6.363-12
 *O              1.2056-9
 *OH             4.5970-6
 *O2             8.054-10

  * THERMODYNAMIC PROPERTIES FITTED TO 20000.K



