
 *******************************************************************************

         NASA-GLENN CHEMICAL EQUILIBRIUM PROGRAM CEA2, MAY 21, 2004
                   BY  BONNIE MCBRIDE AND SANFORD GORDON
      REFS: NASA RP-1311, PART I, 1994 AND NASA RP-1311, PART II, 1996

 *******************************************************************************



 problem    r,eq.ratio=3.7,3.8,3.9,4,
       hp   p,bar=1,  t,k=3800
 react
   fuel=CH4 moles=1 t,k=300
   oxid=O2 moles=2 t,k=300
 output
      trace=1e-16 siunits short
 end




         THERMODYNAMIC EQUILIBRIUM COMBUSTION PROPERTIES AT ASSIGNED

                                   PRESSURES

 CASE =                

             REACTANT                       MOLES         ENERGY      TEMP
                                                         KJ/KG-MOL      K
 FUEL        CH4                          1.0000000    -74533.907    300.000
 OXIDANT     O2                           2.0000000        54.358    300.000

 O/F=    1.07818  %FUEL= 48.119043  R,EQ.RATIO= 3.700000  PHI,EQ.RATIO= 3.700000

 THERMODYNAMIC PROPERTIES

 P, BAR            1.0000
 T, K             1063.76
 RHO, KG/CU M    1.3037-1
 H, KJ/KG        -2234.75
 U, KJ/KG        -3001.82
 G, KJ/KG        -20893.8
 S, KJ/(KG)(K)    17.5407

 M, (1/n)          11.530
 (dLV/dLP)t      -1.04559
 (dLV/dLT)p        1.6123
 Cp, KJ/(KG)(K)    8.9022
 GAMMAs            1.1976
 SON VEL,M/SEC      958.4

 MOLE FRACTIONS

 CH3             4.9342-9
 CH2OH           2.350-14
 CH3O            3.261-16
 CH4             1.8778-2
 CH3OH           1.6484-9
 *CO             3.1034-1
 *CO2            1.6736-2
 COOH            4.756-13
 C2H2,acetylene  3.3022-9
 CH2CO,ketene    5.0371-9
 O(CH)2O         6.377-16
 C2H3,vinyl      6.768-15
 CH3CO,acetyl    1.005-13
 C2H4            2.7966-7
 CH3CHO,ethanal  3.325-10
 CH3COOH         4.627-12
 C2H5            9.532-13
 C2H6            1.6896-7
 C2H5OH          2.588-13
 CH3OCH3         1.484-16
 C3H3,2-propynl  1.927-15
 C3H4,allene     5.856-13
 C3H4,propyne    2.071-12
 C3H5,allyl      1.781-14
 C3H6,propylene  6.940-11
 C3H6,cyclo-     4.001-14
 C3H6O,acetone   8.943-14
 C3H6O,propanal  8.379-15
 C3H8            5.750-12
 C3O2            2.421-14
 C4H6,butadiene  1.086-14
 C4H6,2butyne    2.024-16
 C4H8,1-butene   2.223-15
 C4H8,cis2-buten 1.559-15
 C4H8,tr2-butene 1.786-15
 C4H8,isobutene  2.610-15
 C4H10,n-butane  1.924-16
 C6H6            7.370-15
 *H              8.9166-9
 HCO             4.883-11
 HCCO            1.266-16
 *H2             6.2406-1
 HCHO,formaldehy 1.0352-7
 HCOOH           9.0933-9
 H2O             3.0085-2
 *OH             1.906-12

  * THERMODYNAMIC PROPERTIES FITTED TO 20000.K









         THERMODYNAMIC EQUILIBRIUM COMBUSTION PROPERTIES AT ASSIGNED

                                   PRESSURES

 CASE =                

             REACTANT                       MOLES         ENERGY      TEMP
                                                         KJ/KG-MOL      K
 FUEL        CH4                          1.0000000    -74533.907    300.000
 OXIDANT     O2                           2.0000000        54.358    300.000

 O/F=    1.04981  %FUEL= 48.785100  R,EQ.RATIO= 3.800000  PHI,EQ.RATIO= 3.800000

 THERMODYNAMIC PROPERTIES

 P, BAR            1.0000
 T, K             1053.89
 RHO, KG/CU M    1.3181-1
 H, KJ/KG        -2265.71
 U, KJ/KG        -3024.37
 G, KJ/KG        -20720.2
 S, KJ/(KG)(K)    17.5109

 M, (1/n)          11.550
 MW, MOL WT        11.434
 (dLV/dLP)t      -1.05704
 (dLV/dLT)p        1.8363
 Cp, KJ/(KG)(K)   12.2314
 GAMMAs            1.1647
 SON VEL,M/SEC      940.0

 MOLE FRACTIONS

 CH3             4.4397-9
 CH2OH           2.075-14
 CH3O            2.778-16
 CH4             2.1541-2
 CH3OH           1.7847-9
 *CO             2.9819-1
 *CO2            1.7873-2
 COOH            4.216-13
 C2H2,acetylene  2.8285-9
 CH2CO,ketene    4.7840-9
 O(CH)2O         5.915-16
 C2H3,vinyl      5.427-15
 CH3CO,acetyl    9.207-14
 C2H4            2.9316-7
 CH3CHO,ethanal  3.623-10
 CH3COOH         5.487-12
 C2H5            9.365-13
 C2H6            2.0698-7
 C2H5OH          3.061-13
 CH3OCH3         1.666-16
 C3H3,2-propynl  1.554-15
 C3H4,allene     5.525-13
 C3H4,propyne    1.967-12
 C3H5,allyl      1.736-14
 C3H6,propylene  7.952-11
 C3H6,cyclo-     4.426-14
 C3H6O,acetone   1.087-13
 C3H6O,propanal  9.807-15
 C3H8            7.595-12
 C3O2            2.050-14
 C4H6,butadiene  1.173-14
 C4H6,2butyne    2.124-16
 C4H8,1-butene   2.747-15
 C4H8,cis2-buten 1.947-15
 C4H8,tr2-butene 2.233-15
 C4H8,isobutene  3.283-15
 C4H10,n-butane  2.739-16
 C4H10,isobutane 1.381-16
 C5H6,1,3cyclo-  1.081-16
 C6H6            9.032-15
 *H              6.9873-9
 HCO             4.010-11
 *H2             6.2025-1
 HCHO,formaldehy 1.0047-7
 HCOOH           9.6368-9
 H2O             3.2054-2
 *OH             1.499-12
 C(gr)           1.0085-2

  * THERMODYNAMIC PROPERTIES FITTED TO 20000.K









         THERMODYNAMIC EQUILIBRIUM COMBUSTION PROPERTIES AT ASSIGNED

                                   PRESSURES

 CASE =                

             REACTANT                       MOLES         ENERGY      TEMP
                                                         KJ/KG-MOL      K
 FUEL        CH4                          1.0000000    -74533.907    300.000
 OXIDANT     O2                           2.0000000        54.358    300.000

 O/F=    1.02289  %FUEL= 49.434272  R,EQ.RATIO= 3.900000  PHI,EQ.RATIO= 3.900000

 THERMODYNAMIC PROPERTIES

 P, BAR            1.0000
 T, K             1046.01
 RHO, KG/CU M    1.3303-1
 H, KJ/KG        -2295.88
 U, KJ/KG        -3047.59
 G, KJ/KG        -20581.1
 S, KJ/(KG)(K)    17.4810

 M, (1/n)          11.570
 MW, MOL WT        11.320
 (dLV/dLP)t      -1.06076
 (dLV/dLT)p        1.8948
 Cp, KJ/(KG)(K)   12.9462
 GAMMAs            1.1608
 SON VEL,M/SEC      934.1

 MOLE FRACTIONS

 CH3             3.9303-9
 CH2OH           1.858-14
 CH3O            2.415-16
 CH4             2.3254-2
 CH3OH           1.8878-9
 *CO             2.8494-1
 *CO2            1.9112-2
 COOH            3.879-13
 C2H2,acetylene  2.3176-9
 CH2CO,ketene    4.3777-9
 O(CH)2O         5.453-16
 C2H3,vinyl      4.220-15
 CH3CO,acetyl    8.189-14
 C2H4            2.8369-7
 CH3CHO,ethanal  3.715-10
 CH3COOH         6.190-12
 C2H5            8.607-13
 C2H6            2.2785-7
 C2H5OH          3.363-13
 CH3OCH3         1.754-16
 C3H3,2-propynl  1.170-15
 C3H4,allene     4.734-13
 C3H4,propyne    1.695-12
 C3H5,allyl      1.529-14
 C3H6,propylene  7.997-11
 C3H6,cyclo-     4.325-14
 C3H6O,acetone   1.178-13
 C3H6O,propanal  1.031-14
 C3H8            8.593-12
 C3O2            1.689-14
 C4H6,butadiene  1.085-14
 C4H6,2butyne    1.917-16
 C4H8,1-butene   2.840-15
 C4H8,cis2-buten 2.031-15
 C4H8,tr2-butene 2.330-15
 C4H8,isobutene  3.442-15
 C4H10,n-butane  3.182-16
 C4H10,isobutane 1.616-16
 C6H6            8.604-15
 *H              5.7198-9
 HCO             3.377-11
 *H2             6.1654-1
 HCHO,formaldehy 9.7021-8
 HCOOH           1.0265-8
 H2O             3.4619-2
 *OH             1.264-12
 C(gr)           2.1531-2

  * THERMODYNAMIC PROPERTIES FITTED TO 20000.K









         THERMODYNAMIC EQUILIBRIUM COMBUSTION PROPERTIES AT ASSIGNED

                                   PRESSURES

 CASE =                

             REACTANT                       MOLES         ENERGY      TEMP
                                                         KJ/KG-MOL      K
 FUEL        CH4                          1.0000000    -74533.907    300.000
 OXIDANT     O2                           2.0000000        54.358    300.000

 O/F=    0.99732  %FUEL= 50.067193  R,EQ.RATIO= 4.000000  PHI,EQ.RATIO= 4.000000

 THERMODYNAMIC PROPERTIES

 P, BAR            1.0000
 T, K             1038.70
 RHO, KG/CU M    1.3420-1
 H, KJ/KG        -2325.29
 U, KJ/KG        -3070.45
 G, KJ/KG        -20451.7
 S, KJ/(KG)(K)    17.4511

 M, (1/n)          11.590
 MW, MOL WT        11.214
 (dLV/dLP)t      -1.06425
 (dLV/dLT)p        1.9498
 Cp, KJ/(KG)(K)   13.6145
 GAMMAs            1.1575
 SON VEL,M/SEC      928.7

 MOLE FRACTIONS

 CH3             3.5031-9
 CH2OH           1.670-14
 CH3O            2.113-16
 CH4             2.4981-2
 CH3OH           1.9851-9
 *CO             2.7234-1
 *CO2            2.0262-2
 COOH            3.570-13
 C2H2,acetylene  1.9207-9
 CH2CO,ketene    4.0168-9
 O(CH)2O         5.028-16
 C2H3,vinyl      3.329-15
 CH3CO,acetyl    7.316-14
 C2H4            2.7494-7
 CH3CHO,ethanal  3.793-10
 CH3COOH         6.901-12
 C2H5            7.946-13
 C2H6            2.4927-7
 C2H5OH          3.664-13
 CH3OCH3         1.837-16
 C3H3,2-propynl  8.961-16
 C3H4,allene     4.092-13
 C3H4,propyne    1.473-12
 C3H5,allyl      1.356-14
 C3H6,propylene  8.035-11
 C3H6,cyclo-     4.231-14
 C3H6O,acetone   1.267-13
 C3H6O,propanal  1.077-14
 C3H8            9.645-12
 C3O2            1.401-14
 C4H6,butadiene  1.008-14
 C4H6,2butyne    1.740-16
 C4H8,1-butene   2.928-15
 C4H8,cis2-buten 2.111-15
 C4H8,tr2-butene 2.424-15
 C4H8,isobutene  3.597-15
 C4H10,n-butane  3.662-16
 C4H10,isobutane 1.874-16
 C6H6            8.217-15
 *H              4.7366-9
 HCO             2.866-11
 *H2             6.1289-1
 HCHO,formaldehy 9.3644-8
 HCOOH           1.0843-8
 H2O             3.7127-2
 *OH             1.074-12
 C(gr)           3.2407-2

  * THERMODYNAMIC PROPERTIES FITTED TO 20000.K



