
 *******************************************************************************

         NASA-GLENN CHEMICAL EQUILIBRIUM PROGRAM CEA2, MAY 21, 2004
                   BY  BONNIE MCBRIDE AND SANFORD GORDON
      REFS: NASA RP-1311, PART I, 1994 AND NASA RP-1311, PART II, 1996

 *******************************************************************************



 problem    phi,eq.ratio=0.5,0.6,0.7,0.8,0.9,1,1.1,1.2,1.3,1.4,1.5,1.6,1.7,1.8,1.
 9,2,
       hp   p,bar=1,  t,k=3800
 react
   fuel=H2 moles=1  t,k=300
   oxid=O2 moles=0.5  t,k=300
   oxid=N2 moles=1.8810  t,k=300
 output  short   trace=1e-16
 end




         THERMODYNAMIC EQUILIBRIUM COMBUSTION PROPERTIES AT ASSIGNED

                                   PRESSURES

 CASE =                

             REACTANT                       MOLES         ENERGY      TEMP
                                                         KJ/KG-MOL      K
 FUEL        H2                           1.0000000        53.359    300.000
 OXIDANT     O2                           0.5000000        54.358    300.000
 OXIDANT     N2                           1.8810000        53.881    300.000

 O/F=   68.15148  %FUEL=  1.446101  R,EQ.RATIO= 0.500000  PHI,EQ.RATIO= 0.500000

 THERMODYNAMIC PROPERTIES

 P, BAR            1.0000
 T, K             1641.98
 RHO, KG/CU M    1.9403-1
 H, KJ/KG          2.2268
 U, KJ/KG         -513.15
 G, KJ/KG        -15809.2
 S, KJ/(KG)(K)     9.6295

 M, (1/n)          26.490
 (dLV/dLP)t      -1.00002
 (dLV/dLT)p        1.0011
 Cp, KJ/(KG)(K)    1.4690
 GAMMAs            1.2724
 SON VEL,M/SEC      809.8

 MOLE FRACTIONS

 *H              2.1622-7
 HNO             1.1744-9
 HNO2            6.2585-8
 HNO3            2.345-11
 HO2             3.8671-7
 *H2             6.6333-6
 H2O             1.8986-1
 H2O2            2.5944-8
 *N              1.418-12
 *NH             1.058-13
 NH2             5.861-14
 NH3             6.086-13
 NH2OH           2.628-16
 *NO             1.4713-3
 NO2             3.5810-6
 NO3             1.937-12
 *N2             7.1414-1
 N2O             8.3021-8
 N2O3            1.515-14
 *O              7.2578-6
 *OH             3.1751-4
 *O2             9.4194-2
 O3              2.504-10

  * THERMODYNAMIC PROPERTIES FITTED TO 20000.K









         THERMODYNAMIC EQUILIBRIUM COMBUSTION PROPERTIES AT ASSIGNED

                                   PRESSURES

 CASE =                

             REACTANT                       MOLES         ENERGY      TEMP
                                                         KJ/KG-MOL      K
 FUEL        H2                           1.0000000        53.359    300.000
 OXIDANT     O2                           0.5000000        54.358    300.000
 OXIDANT     N2                           1.8810000        53.881    300.000

 O/F=   56.79290  %FUEL=  1.730316  R,EQ.RATIO= 0.600000  PHI,EQ.RATIO= 0.600000

 THERMODYNAMIC PROPERTIES

 P, BAR            1.0000
 T, K             1837.03
 RHO, KG/CU M    1.7064-1
 H, KJ/KG          2.2968
 U, KJ/KG         -583.72
 G, KJ/KG        -18287.4
 S, KJ/(KG)(K)     9.9561

 M, (1/n)          26.064
 (dLV/dLP)t      -1.00010
 (dLV/dLT)p        1.0039
 Cp, KJ/(KG)(K)    1.5796
 GAMMAs            1.2554
 SON VEL,M/SEC      857.7

 MOLE FRACTIONS

 *H              3.8383-6
 HNO             6.8190-9
 HNO2            8.1134-8
 HNO3            1.802-11
 HO2             9.7579-7
 *H2             6.2293-5
 H2O             2.2309-1
 H2O2            6.2789-8
 *N              5.835-11
 *NH             5.156-12
 NH2             2.277-12
 NH3             1.121-11
 NH2OH           4.393-15
 *NO             2.6126-3
 NO2             3.6110-6
 NO3             2.417-12
 *N2             7.0006-1
 N2O             1.4124-7
 N2O3            2.177-14
 N3              1.067-16
 *O              4.6325-5
 *OH             1.1274-3
 *O2             7.2990-2
 O3              5.317-10

  * THERMODYNAMIC PROPERTIES FITTED TO 20000.K









         THERMODYNAMIC EQUILIBRIUM COMBUSTION PROPERTIES AT ASSIGNED

                                   PRESSURES

 CASE =                

             REACTANT                       MOLES         ENERGY      TEMP
                                                         KJ/KG-MOL      K
 FUEL        H2                           1.0000000        53.359    300.000
 OXIDANT     O2                           0.5000000        54.358    300.000
 OXIDANT     N2                           1.8810000        53.881    300.000

 O/F=   48.67963  %FUEL=  2.012897  R,EQ.RATIO= 0.700000  PHI,EQ.RATIO= 0.700000

 THERMODYNAMIC PROPERTIES

 P, BAR            1.0000
 T, K             2011.98
 RHO, KG/CU M    1.5330-1
 H, KJ/KG          2.3662
 U, KJ/KG         -649.96
 G, KJ/KG        -20643.2
 S, KJ/(KG)(K)    10.2613

 M, (1/n)          25.645
 (dLV/dLP)t      -1.00032
 (dLV/dLT)p        1.0110
 Cp, KJ/(KG)(K)    1.7239
 GAMMAs            1.2375
 SON VEL,M/SEC      898.5

 MOLE FRACTIONS

 *H              3.3060-5
 HNO             2.4110-8
 HNO2            8.8951-8
 HNO3            1.258-11
 HO2             1.7380-6
 *H2             3.5015-4
 H2O             2.5432-1
 H2O2            1.1343-7
 *N              8.868-10
 *NH             9.240-11
 NH2             3.612-11
 NH3             1.077-10
 NH2OH           3.691-14
 *NO             3.6906-3
 NO2             3.1449-6
 NO3             2.300-12
 *N2             6.8624-1
 N2H2            7.670-16
 N2O             1.9413-7
 N2O3            2.295-14
 N3              1.284-15
 N3H             2.022-16
 *O              1.6778-4
 *OH             2.7665-3
 *O2             5.2429-2
 O3              7.489-10

  * THERMODYNAMIC PROPERTIES FITTED TO 20000.K









         THERMODYNAMIC EQUILIBRIUM COMBUSTION PROPERTIES AT ASSIGNED

                                   PRESSURES

 CASE =                

             REACTANT                       MOLES         ENERGY      TEMP
                                                         KJ/KG-MOL      K
 FUEL        H2                           1.0000000        53.359    300.000
 OXIDANT     O2                           0.5000000        54.358    300.000
 OXIDANT     N2                           1.8810000        53.881    300.000

 O/F=   42.59468  %FUEL=  2.293858  R,EQ.RATIO= 0.800000  PHI,EQ.RATIO= 0.800000

 THERMODYNAMIC PROPERTIES

 P, BAR            1.0000
 T, K             2165.88
 RHO, KG/CU M    1.4006-1
 H, KJ/KG          2.4355
 U, KJ/KG         -711.56
 G, KJ/KG        -22846.5
 S, KJ/(KG)(K)    10.5495

 M, (1/n)          25.222
 (dLV/dLP)t      -1.00087
 (dLV/dLT)p        1.0266
 Cp, KJ/(KG)(K)    1.9325
 GAMMAs            1.2179
 SON VEL,M/SEC      932.5

 MOLE FRACTIONS

 *H              1.7527-4
 HNO             5.9064-8
 HNO2            8.1505-8
 HNO3            7.413-12
 HO2             2.2866-6
 *H2             1.4284-3
 H2O             2.8291-1
 H2O2            1.6008-7
 *N              6.7506-9
 *NH             8.423-10
 NH2             3.190-10
 NH3             6.950-10
 NH2OH           1.946-13
 *NO             4.2755-3
 NO2             2.2839-6
 NO3             1.607-12
 *N2             6.7266-1
 N2H2            7.628-15
 N2O             2.2079-7
 N2O3            1.729-14
 N3              8.186-15
 N3H             1.410-15
 *O              3.9399-4
 *OH             5.1415-3
 *O2             3.3008-2
 O3              7.050-10

  * THERMODYNAMIC PROPERTIES FITTED TO 20000.K









         THERMODYNAMIC EQUILIBRIUM COMBUSTION PROPERTIES AT ASSIGNED

                                   PRESSURES

 CASE =                

             REACTANT                       MOLES         ENERGY      TEMP
                                                         KJ/KG-MOL      K
 FUEL        H2                           1.0000000        53.359    300.000
 OXIDANT     O2                           0.5000000        54.358    300.000
 OXIDANT     N2                           1.8810000        53.881    300.000

 O/F=   37.86193  %FUEL=  2.573212  R,EQ.RATIO= 0.900000  PHI,EQ.RATIO= 0.900000

 THERMODYNAMIC PROPERTIES

 P, BAR            1.0000
 T, K             2294.23
 RHO, KG/CU M    1.2990-1
 H, KJ/KG          2.5042
 U, KJ/KG         -767.31
 G, KJ/KG        -24828.3
 S, KJ/(KG)(K)    10.8232

 M, (1/n)          24.779
 (dLV/dLP)t      -1.00213
 (dLV/dLT)p        1.0595
 Cp, KJ/(KG)(K)    2.2743
 GAMMAs            1.1954
 SON VEL,M/SEC      959.3

 MOLE FRACTIONS

 *H              6.5603-4
 HNO             1.0377-7
 HNO2            5.7521-8
 HNO3            3.133-12
 HO2             2.1050-6
 *H2             4.8624-3
 H2O             3.0742-1
 H2O2            1.7122-7
 *N              2.9742-8
 *NH             4.6670-9
 NH2             1.9069-9
 NH3             3.6441-9
 NH2OH           7.298-13
 *NO             3.9212-3
 NO2             1.2311-6
 NO3             6.968-13
 *N2             6.5910-1
 N2H2            4.987-14
 N2O             1.9978-7
 N2O3            7.904-15
 N3              3.154-14
 N3H             6.400-15
 *O              6.0814-4
 *OH             7.3697-3
 *O2             1.6057-2
 O3              3.826-10

  * THERMODYNAMIC PROPERTIES FITTED TO 20000.K









         THERMODYNAMIC EQUILIBRIUM COMBUSTION PROPERTIES AT ASSIGNED

                                   PRESSURES

 CASE =                

             REACTANT                       MOLES         ENERGY      TEMP
                                                         KJ/KG-MOL      K
 FUEL        H2                           1.0000000        53.359    300.000
 OXIDANT     O2                           0.5000000        54.358    300.000
 OXIDANT     N2                           1.8810000        53.881    300.000

 O/F=   34.07574  %FUEL=  2.850973  R,EQ.RATIO= 1.000000  PHI,EQ.RATIO= 1.000000

 THERMODYNAMIC PROPERTIES

 P, BAR            1.0000
 T, K             2378.58
 RHO, KG/CU M    1.2273-1
 H, KJ/KG          2.5725
 U, KJ/KG         -812.22
 G, KJ/KG        -26359.8
 S, KJ/(KG)(K)    11.0833

 M, (1/n)          24.272
 (dLV/dLP)t      -1.00400
 (dLV/dLT)p        1.1067
 Cp, KJ/(KG)(K)    2.7342
 GAMMAs            1.1757
 SON VEL,M/SEC      978.8

 MOLE FRACTIONS

 *H              1.7704-3
 HNO             1.1852-7
 HNO2            2.5408-8
 HNO3            6.807-13
 HO2             1.0950-6
 *H2             1.5169-2
 H2O             3.2348-1
 H2O2            1.1930-7
 *N              7.1902-8
 *NH             1.5838-8
 NH2             8.2918-9
 NH3             1.7944-8
 NH2OH           1.968-12
 *NO             2.4746-3
 NO2             3.7785-7
 NO3             1.255-13
 *N2             6.4445-1
 N2H2            2.283-13
 N2O             1.2459-7
 N2O3            1.463-15
 N3              6.969-14
 N3H             1.911-14
 *O              5.2696-4
 *OH             7.4750-3
 *O2             4.6565-3
 O3              7.941-11

  * THERMODYNAMIC PROPERTIES FITTED TO 20000.K









         THERMODYNAMIC EQUILIBRIUM COMBUSTION PROPERTIES AT ASSIGNED

                                   PRESSURES

 CASE =                

             REACTANT                       MOLES         ENERGY      TEMP
                                                         KJ/KG-MOL      K
 FUEL        H2                           1.0000000        53.359    300.000
 OXIDANT     O2                           0.5000000        54.358    300.000
 OXIDANT     N2                           1.8810000        53.881    300.000

 O/F=   30.97795  %FUEL=  3.127155  R,EQ.RATIO= 1.100000  PHI,EQ.RATIO= 1.100000

 THERMODYNAMIC PROPERTIES

 P, BAR            1.0000
 T, K             2391.29
 RHO, KG/CU M    1.1895-1
 H, KJ/KG          2.6403
 U, KJ/KG         -838.02
 G, KJ/KG        -27091.8
 S, KJ/(KG)(K)    11.3304

 M, (1/n)          23.651
 (dLV/dLP)t      -1.00316
 (dLV/dLT)p        1.0843
 Cp, KJ/(KG)(K)    2.5861
 GAMMAs            1.1858
 SON VEL,M/SEC      998.4

 MOLE FRACTIONS

 *H              2.9616-3
 HNO             8.2237-8
 HNO2            7.3049-9
 HNO3            8.397-14
 HO2             3.2631-7
 *H2             3.7546-2
 H2O             3.2528-1
 H2O2            5.3736-8
 *N              8.0705-8
 *NH             2.7053-8
 NH2             2.1272-8
 NH3             6.7915-8
 NH2OH           3.246-12
 *NO             1.0874-3
 NO2             7.1124-8
 NO3             1.040-14
 *N2             6.2684-1
 N2H2            5.829-13
 N2O             5.3993-8
 N2O3            1.202-16
 N3              7.535-14
 N3H             3.126-14
 *O              2.4541-4
 *OH             5.1601-3
 *O2             8.8002-4
 O3              6.800-12

  * THERMODYNAMIC PROPERTIES FITTED TO 20000.K









         THERMODYNAMIC EQUILIBRIUM COMBUSTION PROPERTIES AT ASSIGNED

                                   PRESSURES

 CASE =                

             REACTANT                       MOLES         ENERGY      TEMP
                                                         KJ/KG-MOL      K
 FUEL        H2                           1.0000000        53.359    300.000
 OXIDANT     O2                           0.5000000        54.358    300.000
 OXIDANT     N2                           1.8810000        53.881    300.000

 O/F=   28.39645  %FUEL=  3.401771  R,EQ.RATIO= 1.200000  PHI,EQ.RATIO= 1.200000

 THERMODYNAMIC PROPERTIES

 P, BAR            1.0000
 T, K             2363.21
 RHO, KG/CU M    1.1701-1
 H, KJ/KG          2.7079
 U, KJ/KG         -851.92
 G, KJ/KG        -27333.8
 S, KJ/(KG)(K)    11.5675

 M, (1/n)          22.991
 (dLV/dLP)t      -1.00207
 (dLV/dLT)p        1.0549
 Cp, KJ/(KG)(K)    2.3591
 GAMMAs            1.2027
 SON VEL,M/SEC     1013.8

 MOLE FRACTIONS

 *H              3.4149-3
 HNO             4.8573-8
 HNO2            2.3194-9
 HNO3            1.326-14
 HO2             1.0019-7
 *H2             6.5572-2
 H2O             3.1908-1
 H2O2            2.3832-8
 *N              5.9617-8
 *NH             2.8435-8
 NH2             3.2759-8
 NH3             1.5945-7
 NH2OH           3.662-12
 *NO             4.8994-4
 NO2             1.6001-8
 NO3             1.100-15
 *N2             6.0791-1
 N2H2            8.661-13
 N2O             2.3959-8
 N3              5.516-14
 N3H             3.297-14
 *O              1.0176-4
 *OH             3.2279-3
 *O2             2.0549-4
 O3              6.998-13

  * THERMODYNAMIC PROPERTIES FITTED TO 20000.K









         THERMODYNAMIC EQUILIBRIUM COMBUSTION PROPERTIES AT ASSIGNED

                                   PRESSURES

 CASE =                

             REACTANT                       MOLES         ENERGY      TEMP
                                                         KJ/KG-MOL      K
 FUEL        H2                           1.0000000        53.359    300.000
 OXIDANT     O2                           0.5000000        54.358    300.000
 OXIDANT     N2                           1.8810000        53.881    300.000

 O/F=   26.21211  %FUEL=  3.674835  R,EQ.RATIO= 1.300000  PHI,EQ.RATIO= 1.300000

 THERMODYNAMIC PROPERTIES

 P, BAR            1.0000
 T, K             2325.05
 RHO, KG/CU M    1.1563-1
 H, KJ/KG          2.7751
 U, KJ/KG         -862.09
 G, KJ/KG        -27427.1
 S, KJ/(KG)(K)    11.7975

 M, (1/n)          22.352
 (dLV/dLP)t      -1.00153
 (dLV/dLT)p        1.0401
 Cp, KJ/(KG)(K)    2.2636
 GAMMAs            1.2140
 SON VEL,M/SEC     1024.7

 MOLE FRACTIONS

 *H              3.3758-3
 HNO             2.8941-8
 HNO2            8.854-10
 HNO3            2.911-15
 HO2             3.6272-8
 *H2             9.3796-2
 H2O             3.1095-1
 H2O2            1.1685-8
 *N              3.9284-8
 *NH             2.4847-8
 NH2             3.9547-8
 NH3             2.8111-7
 NH2OH           3.538-12
 *NO             2.4679-4
 NO2             4.6580-9
 NO3             1.700-16
 *N2             5.8945-1
 N2H2            1.001-12
 N2O             1.1886-8
 N3              3.633-14
 N3H             2.929-14
 *O              4.5371-5
 *OH             2.0708-3
 *O2             6.2635-5
 O3              1.036-13

  * THERMODYNAMIC PROPERTIES FITTED TO 20000.K









         THERMODYNAMIC EQUILIBRIUM COMBUSTION PROPERTIES AT ASSIGNED

                                   PRESSURES

 CASE =                

             REACTANT                       MOLES         ENERGY      TEMP
                                                         KJ/KG-MOL      K
 FUEL        H2                           1.0000000        53.359    300.000
 OXIDANT     O2                           0.5000000        54.358    300.000
 OXIDANT     N2                           1.8810000        53.881    300.000

 O/F=   24.33982  %FUEL=  3.946359  R,EQ.RATIO= 1.400000  PHI,EQ.RATIO= 1.400000

 THERMODYNAMIC PROPERTIES

 P, BAR            1.0000
 T, K             2284.86
 RHO, KG/CU M    1.1446-1
 H, KJ/KG          2.8419
 U, KJ/KG         -870.79
 G, KJ/KG        -27466.0
 S, KJ/(KG)(K)    12.0221

 M, (1/n)          21.745
 (dLV/dLP)t      -1.00120
 (dLV/dLT)p        1.0313
 Cp, KJ/(KG)(K)    2.2223
 GAMMAs            1.2222
 SON VEL,M/SEC     1033.3

 MOLE FRACTIONS

 *H              3.1156-3
 HNO             1.7668-8
 HNO2            3.813-10
 HNO3            7.865-16
 HO2             1.4719-8
 *H2             1.2095-1
 H2O             3.0250-1
 H2O2            6.1650-9
 *N              2.4986-8
 *NH             2.0080-8
 NH2             4.2466-8
 NH3             4.2610-7
 NH2OH           3.192-12
 *NO             1.3422-4
 NO2             1.5980-9
 *N2             5.7188-1
 N2H2            1.027-12
 N2O             6.3709-9
 N3              2.317-14
 N3H             2.419-14
 *O              2.1572-5
 *OH             1.3673-3
 *O2             2.2551-5
 O3              1.949-14

  * THERMODYNAMIC PROPERTIES FITTED TO 20000.K









         THERMODYNAMIC EQUILIBRIUM COMBUSTION PROPERTIES AT ASSIGNED

                                   PRESSURES

 CASE =                

             REACTANT                       MOLES         ENERGY      TEMP
                                                         KJ/KG-MOL      K
 FUEL        H2                           1.0000000        53.359    300.000
 OXIDANT     O2                           0.5000000        54.358    300.000
 OXIDANT     N2                           1.8810000        53.881    300.000

 O/F=   22.71716  %FUEL=  4.216356  R,EQ.RATIO= 1.500000  PHI,EQ.RATIO= 1.500000

 THERMODYNAMIC PROPERTIES

 P, BAR            1.0000
 T, K             2244.80
 RHO, KG/CU M    1.1343-1
 H, KJ/KG          2.9083
 U, KJ/KG         -878.68
 G, KJ/KG        -27478.2
 S, KJ/(KG)(K)    12.2421

 M, (1/n)          21.171
 (dLV/dLP)t      -1.00096
 (dLV/dLT)p        1.0252
 Cp, KJ/(KG)(K)    2.2050
 GAMMAs            1.2289
 SON VEL,M/SEC     1040.8

 MOLE FRACTIONS

 *H              2.7709-3
 HNO             1.1005-8
 HNO2            1.776-10
 HNO3            2.426-16
 HO2             6.4394-9
 *H2             1.4678-1
 H2O             2.9418-1
 H2O2            3.4172-9
 *N              1.5672-8
 *NH             1.5581-8
 NH2             4.2696-8
 NH3             5.9090-7
 NH2OH           2.778-12
 *NO             7.6783-5
 NO2             6.090-10
 *N2             5.5525-1
 N2H2            9.870-13
 N2O             3.5939-9
 N3              1.460-14
 N3H             1.923-14
 *O              1.0732-5
 *OH             9.2232-4
 *O2             9.0253-6
 O3              4.278-15

  * THERMODYNAMIC PROPERTIES FITTED TO 20000.K









         THERMODYNAMIC EQUILIBRIUM COMBUSTION PROPERTIES AT ASSIGNED

                                   PRESSURES

 CASE =                

             REACTANT                       MOLES         ENERGY      TEMP
                                                         KJ/KG-MOL      K
 FUEL        H2                           1.0000000        53.359    300.000
 OXIDANT     O2                           0.5000000        54.358    300.000
 OXIDANT     N2                           1.8810000        53.881    300.000

 O/F=   21.29734  %FUEL=  4.484840  R,EQ.RATIO= 1.600000  PHI,EQ.RATIO= 1.600000

 THERMODYNAMIC PROPERTIES

 P, BAR            1.0000
 T, K             2205.53
 RHO, KG/CU M    1.1249-1
 H, KJ/KG          2.9746
 U, KJ/KG         -886.00
 G, KJ/KG        -27474.2
 S, KJ/(KG)(K)    12.4583

 M, (1/n)          20.628
 (dLV/dLP)t      -1.00078
 (dLV/dLT)p        1.0206
 Cp, KJ/(KG)(K)    2.2006
 GAMMAs            1.2346
 SON VEL,M/SEC     1047.6

 MOLE FRACTIONS

 *H              2.4088-3
 HNO             6.9619-9
 HNO2            8.726-11
 HO2             2.9681-9
 *H2             1.7127-1
 H2O             2.8614-1
 H2O2            1.9609-9
 *N              9.7680-9
 *NH             1.1800-8
 NH2             4.1184-8
 NH3             7.7352-7
 NH2OH           2.366-12
 *NO             4.5489-5
 NO2             2.494-10
 *N2             5.3950-1
 N2H2            9.101-13
 N2O             2.1009-9
 N3              9.158-15
 N3H             1.495-14
 *O              5.5146-6
 *OH             6.3206-4
 *O2             3.8813-6
 O3              1.045-15

  * THERMODYNAMIC PROPERTIES FITTED TO 20000.K









         THERMODYNAMIC EQUILIBRIUM COMBUSTION PROPERTIES AT ASSIGNED

                                   PRESSURES

 CASE =                

             REACTANT                       MOLES         ENERGY      TEMP
                                                         KJ/KG-MOL      K
 FUEL        H2                           1.0000000        53.359    300.000
 OXIDANT     O2                           0.5000000        54.358    300.000
 OXIDANT     N2                           1.8810000        53.881    300.000

 O/F=   20.04455  %FUEL=  4.751823  R,EQ.RATIO= 1.700000  PHI,EQ.RATIO= 1.700000

 THERMODYNAMIC PROPERTIES

 P, BAR            1.0000
 T, K             2167.34
 RHO, KG/CU M    1.1162-1
 H, KJ/KG          3.0403
 U, KJ/KG         -892.87
 G, KJ/KG        -27459.2
 S, KJ/(KG)(K)    12.6709

 M, (1/n)          20.114
 (dLV/dLP)t      -1.00064
 (dLV/dLT)p        1.0169
 Cp, KJ/(KG)(K)    2.2039
 GAMMAs            1.2396
 SON VEL,M/SEC     1053.9

 MOLE FRACTIONS

 *H              2.0625-3
 HNO             4.4584-9
 HNO2            4.460-11
 HO2             1.4213-9
 *H2             1.9445-1
 H2O             2.7843-1
 H2O2            1.1544-9
 *N              6.0698-9
 *NH             8.7957-9
 NH2             3.8621-8
 NH3             9.7281-7
 NH2OH           1.988-12
 *NO             2.7649-5
 NO2             1.076-10
 *N2             5.2459-1
 N2H2            8.165-13
 N2O             1.2608-9
 N3              5.732-15
 N3H             1.146-14
 *O              2.9029-6
 *OH             4.3836-4
 *O2             1.7579-6
 O3              2.755-16

  * THERMODYNAMIC PROPERTIES FITTED TO 20000.K









         THERMODYNAMIC EQUILIBRIUM COMBUSTION PROPERTIES AT ASSIGNED

                                   PRESSURES

 CASE =                

             REACTANT                       MOLES         ENERGY      TEMP
                                                         KJ/KG-MOL      K
 FUEL        H2                           1.0000000        53.359    300.000
 OXIDANT     O2                           0.5000000        54.358    300.000
 OXIDANT     N2                           1.8810000        53.881    300.000

 O/F=   18.93097  %FUEL=  5.017318  R,EQ.RATIO= 1.800000  PHI,EQ.RATIO= 1.800000

 THERMODYNAMIC PROPERTIES

 P, BAR            1.0000
 T, K             2130.30
 RHO, KG/CU M    1.1081-1
 H, KJ/KG          3.1055
 U, KJ/KG         -899.36
 G, KJ/KG        -27436.1
 S, KJ/(KG)(K)    12.8804

 M, (1/n)          19.627
 (dLV/dLP)t      -1.00052
 (dLV/dLT)p        1.0139
 Cp, KJ/(KG)(K)    2.2127
 GAMMAs            1.2443
 SON VEL,M/SEC     1059.7

 MOLE FRACTIONS

 *H              1.7472-3
 HNO             2.8836-9
 HNO2            2.349-11
 HO2             7.007-10
 *H2             2.1641-1
 H2O             2.7106-1
 H2O2            6.932-10
 *N              3.7668-9
 *NH             6.4851-9
 NH2             3.5492-8
 NH3             1.1881-6
 NH2OH           1.654-12
 *NO             1.7137-5
 NO2             4.826-11
 *N2             5.1046-1
 N2H2            7.183-13
 N2O             7.721-10
 N3              3.587-15
 N3H             8.692-15
 *O              1.5569-6
 *OH             3.0689-4
 *O2             8.2797-7

  * THERMODYNAMIC PROPERTIES FITTED TO 20000.K









         THERMODYNAMIC EQUILIBRIUM COMBUSTION PROPERTIES AT ASSIGNED

                                   PRESSURES

 CASE =                

             REACTANT                       MOLES         ENERGY      TEMP
                                                         KJ/KG-MOL      K
 FUEL        H2                           1.0000000        53.359    300.000
 OXIDANT     O2                           0.5000000        54.358    300.000
 OXIDANT     N2                           1.8810000        53.881    300.000

 O/F=   17.93460  %FUEL=  5.281337  R,EQ.RATIO= 1.900000  PHI,EQ.RATIO= 1.900000

 THERMODYNAMIC PROPERTIES

 P, BAR            1.0000
 T, K             2094.45
 RHO, KG/CU M    1.1005-1
 H, KJ/KG          3.1704
 U, KJ/KG         -905.50
 G, KJ/KG        -27406.9
 S, KJ/(KG)(K)    13.0870

 M, (1/n)          19.165
 (dLV/dLP)t      -1.00043
 (dLV/dLT)p        1.0115
 Cp, KJ/(KG)(K)    2.2253
 GAMMAs            1.2485
 SON VEL,M/SEC     1065.1

 MOLE FRACTIONS

 *H              1.4685-3
 HNO             1.8804-9
 HNO2            1.267-11
 HO2             3.535-10
 *H2             2.3721-1
 H2O             2.6403-1
 H2O2            4.229-10
 *N              2.3368-9
 *NH             4.7443-9
 NH2             3.2128-8
 NH3             1.4193-6
 NH2OH           1.368-12
 *NO             1.0788-5
 NO2             2.234-11
 *N2             4.9706-1
 N2H2            6.229-13
 N2O             4.805-10
 N3              2.245-15
 N3H             6.550-15
 *O              8.4764-7
 *OH             2.1650-4
 *O2             4.0212-7

  * THERMODYNAMIC PROPERTIES FITTED TO 20000.K









         THERMODYNAMIC EQUILIBRIUM COMBUSTION PROPERTIES AT ASSIGNED

                                   PRESSURES

 CASE =                

             REACTANT                       MOLES         ENERGY      TEMP
                                                         KJ/KG-MOL      K
 FUEL        H2                           1.0000000        53.359    300.000
 OXIDANT     O2                           0.5000000        54.358    300.000
 OXIDANT     N2                           1.8810000        53.881    300.000

 O/F=   17.03787  %FUEL=  5.543892  R,EQ.RATIO= 2.000000  PHI,EQ.RATIO= 2.000000

 THERMODYNAMIC PROPERTIES

 P, BAR            1.0000
 T, K             2059.78
 RHO, KG/CU M    1.0934-1
 H, KJ/KG          3.2349
 U, KJ/KG         -911.35
 G, KJ/KG        -27372.9
 S, KJ/(KG)(K)    13.2908

 M, (1/n)          18.726
 (dLV/dLP)t      -1.00035
 (dLV/dLT)p        1.0095
 Cp, KJ/(KG)(K)    2.2411
 GAMMAs            1.2524
 SON VEL,M/SEC     1070.3

 MOLE FRACTIONS

 *H              1.2271-3
 HNO             1.2350-9
 HNO2            6.966-12
 HO2             1.818-10
 *H2             2.5696-1
 H2O             2.5733-1
 H2O2            2.614-10
 *N              1.4501-9
 *NH             3.4512-9
 NH2             2.8750-8
 NH3             1.6662-6
 NH2OH           1.126-12
 *NO             6.8786-6
 NO2             1.060-11
 *N2             4.8433-1
 N2H2            5.344-13
 N2O             3.030-10
 N3              1.407-15
 N3H             4.913-15
 *O              4.6725-7
 *OH             1.5372-4
 *O2             2.0021-7

  * THERMODYNAMIC PROPERTIES FITTED TO 20000.K



