
 *******************************************************************************

         NASA-GLENN CHEMICAL EQUILIBRIUM PROGRAM CEA2, MAY 21, 2004
                   BY  BONNIE MCBRIDE AND SANFORD GORDON
      REFS: NASA RP-1311, PART I, 1994 AND NASA RP-1311, PART II, 1996

 *******************************************************************************



 problem    phi,eq.ratio=2.1,2.2,2.3,2.4,2.5,2.6,2.7,2.8,2.9,3,3.1,3.2,3.3,3.4,3.
 5,3.6,
       hp   p,bar=1,  t,k=3800
 react
   fuel=CH4 moles=0.85 t,k=300
   oxid=O2 moles=2.3 t,k=300
   oxid=N2 moles=8.6524 t,k=300
   fuel=C2H6 moles=0.1 t,k=300
   fuel=C3H8 moles=0.05 t,k=300
 output
      trace=1e-16 siunits short
 end




         THERMODYNAMIC EQUILIBRIUM COMBUSTION PROPERTIES AT ASSIGNED

                                   PRESSURES

 CASE =                

             REACTANT                       MOLES         ENERGY      TEMP
                                                         KJ/KG-MOL      K
 FUEL        CH4                          0.8500000    -74533.907    300.000
 OXIDANT     O2                           2.3000000        54.358    300.000
 OXIDANT     N2                           8.6524000        53.881    300.000
 FUEL        C2H6                         0.1000000    -83754.210    300.000
 FUEL        C3H8                         0.0500000   -104543.521    300.000

 O/F=    7.98327  %FUEL= 11.131806  R,EQ.RATIO= 2.100000  PHI,EQ.RATIO= 2.100000

 THERMODYNAMIC PROPERTIES

 P, BAR            1.0000
 T, K             1519.07
 RHO, KG/CU M    1.7826-1
 H, KJ/KG         -452.85
 U, KJ/KG        -1013.84
 G, KJ/KG        -16915.1
 S, KJ/(KG)(K)    10.8371

 M, (1/n)          22.515
 (dLV/dLP)t      -1.00001
 (dLV/dLT)p        1.0001
 Cp, KJ/(KG)(K)    1.6550
 GAMMAs            1.2873
 SON VEL,M/SEC      849.8

 MOLE FRACTIONS

 CH2             1.588-15
 CH3             3.149-11
 CH2OH           3.013-14
 CH3O            1.392-15
 CH4             3.0145-8
 CH3OH           1.821-12
 *CN             4.257-14
 *CO             1.3214-1
 *CO2            2.7434-2
 COOH            1.778-10
 C2H2,acetylene  2.736-13
 CH2CO,ketene    1.683-12
 CH3CN           6.130-15
 C2H4            1.229-14
 CH3CHO,ethanal  4.733-16
 C2N2            3.331-16
 C3O2            1.615-16
 *H              9.5888-6
 HCN             1.6203-7
 HCO             1.8605-9
 HCCO            1.899-16
 HNC             2.4890-9
 HNCO            2.6446-8
 HNO             4.225-13
 HNO2            2.809-16
 HO2             1.197-15
 *H2             1.8826-1
 HCHO,formaldehy 1.1063-8
 HCOOH           6.8823-9
 H2O             1.0427-1
 H2O2            3.281-14
 *N              7.277-14
 NCO             3.553-13
 *NH             1.882-12
 NH2             4.902-10
 NH3             3.5574-6
 NH2OH           6.636-15
 *NO             3.2861-9
 *N2             5.4788-1
 N2H2            5.612-15
 N2O             1.675-13
 *O              7.049-12
 *OH             1.9004-7
 *O2             1.812-12

  * THERMODYNAMIC PROPERTIES FITTED TO 20000.K









         THERMODYNAMIC EQUILIBRIUM COMBUSTION PROPERTIES AT ASSIGNED

                                   PRESSURES

 CASE =                

             REACTANT                       MOLES         ENERGY      TEMP
                                                         KJ/KG-MOL      K
 FUEL        CH4                          0.8500000    -74533.907    300.000
 OXIDANT     O2                           2.3000000        54.358    300.000
 OXIDANT     N2                           8.6524000        53.881    300.000
 FUEL        C2H6                         0.1000000    -83754.210    300.000
 FUEL        C3H8                         0.0500000   -104543.521    300.000

 O/F=    7.62039  %FUEL= 11.600400  R,EQ.RATIO= 2.200000  PHI,EQ.RATIO= 2.200000

 THERMODYNAMIC PROPERTIES

 P, BAR            1.0000
 T, K             1458.92
 RHO, KG/CU M    1.8266-1
 H, KJ/KG         -472.00
 U, KJ/KG        -1019.46
 G, KJ/KG        -16368.7
 S, KJ/(KG)(K)    10.8962

 M, (1/n)          22.157
 (dLV/dLP)t      -1.00001
 (dLV/dLT)p        1.0001
 Cp, KJ/(KG)(K)    1.6652
 GAMMAs            1.2909
 SON VEL,M/SEC      840.7

 MOLE FRACTIONS

 CH2             9.526-16
 CH3             4.422-11
 CH2OH           2.684-14
 CH3O            1.099-15
 CH4             9.2314-8
 CH3OH           3.149-12
 *CN             1.958-14
 *CO             1.3727-1
 *CO2            2.6373-2
 COOH            9.976-11
 C2H2,acetylene  5.339-13
 CH2CO,ketene    3.035-12
 CH3CN           2.136-14
 CH3CO,acetyl    1.070-16
 C2H4            4.807-14
 CH3CHO,ethanal  1.398-15
 CH3COOH         1.307-16
 C2H6            1.189-16
 C2N2            4.358-16
 C3O2            2.142-16
 *H              4.8028-6
 HCN             2.1065-7
 HCO             1.2336-9
 HCCO            1.549-16
 HNC             2.6378-9
 HNCO            2.9017-8
 HNO             1.170-13
 HO2             1.669-16
 *H2             2.0489-1
 HCHO,formaldehy 1.2709-8
 HCOOH           6.8712-9
 H2O             9.5122-2
 H2O2            7.784-15
 *N              1.511-14
 NCO             1.627-13
 *NH             6.060-13
 NH2             2.897-10
 NH3             4.8020-6
 NH2OH           3.299-15
 *NO             8.934-10
 *N2             5.3634-1
 N2H2            3.041-15
 N2O             4.591-14
 *O              1.139-12
 *OH             6.5364-8
 *O2             2.486-13

  * THERMODYNAMIC PROPERTIES FITTED TO 20000.K









         THERMODYNAMIC EQUILIBRIUM COMBUSTION PROPERTIES AT ASSIGNED

                                   PRESSURES

 CASE =                

             REACTANT                       MOLES         ENERGY      TEMP
                                                         KJ/KG-MOL      K
 FUEL        CH4                          0.8500000    -74533.907    300.000
 OXIDANT     O2                           2.3000000        54.358    300.000
 OXIDANT     N2                           8.6524000        53.881    300.000
 FUEL        C2H6                         0.1000000    -83754.210    300.000
 FUEL        C3H8                         0.0500000   -104543.521    300.000

 O/F=    7.28907  %FUEL= 12.064078  R,EQ.RATIO= 2.300000  PHI,EQ.RATIO= 2.300000

 THERMODYNAMIC PROPERTIES

 P, BAR            1.0000
 T, K             1400.41
 RHO, KG/CU M    1.8735-1
 H, KJ/KG         -490.94
 U, KJ/KG        -1024.70
 G, KJ/KG        -15826.8
 S, KJ/(KG)(K)    10.9510

 M, (1/n)          21.814
 (dLV/dLP)t      -1.00001
 (dLV/dLT)p        1.0001
 Cp, KJ/(KG)(K)    1.6755
 GAMMAs            1.2945
 SON VEL,M/SEC      831.2

 MOLE FRACTIONS

 CH2             5.378-16
 CH3             6.087-11
 CH2OH           2.315-14
 CH3O            8.349-16
 CH4             2.8760-7
 CH3OH           5.433-12
 *CN             8.474-15
 *CO             1.4205-1
 *CO2            2.5499-2
 COOH            5.428-11
 C2H2,acetylene  1.029-12
 CH2CO,ketene    5.452-12
 CH3CN           7.549-14
 CH3CO,acetyl    1.755-16
 C2H4            1.903-13
 CH3CHO,ethanal  4.172-15
 CH3COOH         3.382-16
 C2H6            8.302-16
 C2N2            5.597-16
 C3O2            2.807-16
 *H              2.3017-6
 HCN             2.7126-7
 HCO             7.896-10
 HCCO            1.211-16
 HNC             2.7376-9
 HNCO            3.1649-8
 HNO             3.042-14
 *H2             2.2097-1
 HCHO,formaldehy 1.4434-8
 HCOOH           6.8312-9
 H2O             8.6204-2
 H2O2            1.727-15
 *N              2.879-15
 NCO             7.104-14
 *NH             1.821-13
 NH2             1.642-10
 NH3             6.4607-6
 NH2OH           1.570-15
 *NO             2.292-10
 *N2             5.2527-1
 N2H2            1.577-15
 N2O             1.190-14
 *O              1.687-13
 *OH             2.1317-8
 *O2             3.137-14

  * THERMODYNAMIC PROPERTIES FITTED TO 20000.K









         THERMODYNAMIC EQUILIBRIUM COMBUSTION PROPERTIES AT ASSIGNED

                                   PRESSURES

 CASE =                

             REACTANT                       MOLES         ENERGY      TEMP
                                                         KJ/KG-MOL      K
 FUEL        CH4                          0.8500000    -74533.907    300.000
 OXIDANT     O2                           2.3000000        54.358    300.000
 OXIDANT     N2                           8.6524000        53.881    300.000
 FUEL        C2H6                         0.1000000    -83754.210    300.000
 FUEL        C3H8                         0.0500000   -104543.521    300.000

 O/F=    6.98536  %FUEL= 12.522918  R,EQ.RATIO= 2.400000  PHI,EQ.RATIO= 2.400000

 THERMODYNAMIC PROPERTIES

 P, BAR            1.0000
 T, K             1343.44
 RHO, KG/CU M    1.9235-1
 H, KJ/KG         -509.68
 U, KJ/KG        -1029.57
 G, KJ/KG        -15289.6
 S, KJ/(KG)(K)    11.0016

 M, (1/n)          21.485
 (dLV/dLP)t      -1.00001
 (dLV/dLT)p        1.0001
 Cp, KJ/(KG)(K)    1.6858
 GAMMAs            1.2980
 SON VEL,M/SEC      821.5

 MOLE FRACTIONS

 CH2             2.858-16
 CH3             8.252-11
 CH2OH           1.935-14
 CH3O            6.116-16
 CH4             9.2040-7
 CH3OH           9.404-12
 *CN             3.443-15
 *CO             1.4653-1
 *CO2            2.4771-2
 COOH            2.854-11
 C2H2,acetylene  1.973-12
 CH2CO,ketene    9.816-12
 CH3CN           2.737-13
 CH3CO,acetyl    2.854-16
 C2H4            7.727-13
 CH3CHO,ethanal  1.270-14
 CH3COOH         8.970-16
 C2H6            6.072-15
 C2N2            7.094-16
 C3O2            3.652-16
 *H              1.0523-6
 HCN             3.4730-7
 HCO             4.873-10
 HNC             2.7900-9
 HNCO            3.4370-8
 HNO             7.364-15
 *H2             2.3650-1
 HCHO,formaldehy 1.6243-8
 HCOOH           6.7653-9
 H2O             7.7537-2
 H2O2            3.547-16
 *N              4.997-16
 NCO             2.950-14
 *NH             5.084-14
 NH2             8.903-11
 NH3             8.6905-6
 NH2OH           7.124-16
 *NO             5.501-11
 *N2             5.1464-1
 N2H2            7.809-16
 N2O             2.895-15
 *O              2.265-14
 *OH             6.5492-9
 *O2             3.592-15

  * THERMODYNAMIC PROPERTIES FITTED TO 20000.K









         THERMODYNAMIC EQUILIBRIUM COMBUSTION PROPERTIES AT ASSIGNED

                                   PRESSURES

 CASE =                

             REACTANT                       MOLES         ENERGY      TEMP
                                                         KJ/KG-MOL      K
 FUEL        CH4                          0.8500000    -74533.907    300.000
 OXIDANT     O2                           2.3000000        54.358    300.000
 OXIDANT     N2                           8.6524000        53.881    300.000
 FUEL        C2H6                         0.1000000    -83754.210    300.000
 FUEL        C3H8                         0.0500000   -104543.521    300.000

 O/F=    6.70595  %FUEL= 12.976993  R,EQ.RATIO= 2.500000  PHI,EQ.RATIO= 2.500000

 THERMODYNAMIC PROPERTIES

 P, BAR            1.0000
 T, K             1287.93
 RHO, KG/CU M    1.9769-1
 H, KJ/KG         -528.23
 U, KJ/KG        -1034.08
 G, KJ/KG        -14757.2
 S, KJ/(KG)(K)    11.0479

 M, (1/n)          21.169
 (dLV/dLP)t      -1.00002
 (dLV/dLT)p        1.0002
 Cp, KJ/(KG)(K)    1.6965
 GAMMAs            1.3014
 SON VEL,M/SEC      811.4

 MOLE FRACTIONS

 CH2             1.429-16
 CH3             1.107-10
 CH2OH           1.569-14
 CH3O            4.319-16
 CH4             3.0536-6
 CH3OH           1.640-11
 *CN             1.310-15
 *CO             1.5075-1
 *CO2            2.4154-2
 COOH            1.445-11
 C2H2,acetylene  3.796-12
 CH2CO,ketene    1.782-11
 CH3CN           1.030-12
 CH3CO,acetyl    4.634-16
 C2H4            3.257-12
 CH3CHO,ethanal  3.984-14
 CH3COOH         2.458-15
 C2H6            4.727-14
 C2N2            8.917-16
 C3O2            4.737-16
 *H              4.5735-7
 HCN             4.4368-7
 HCO             2.894-10
 HNC             2.7987-9
 HNCO            3.7211-8
 HNO             1.647-15
 *H2             2.5150-1
 HCHO,formaldehy 1.8144-8
 HCOOH           6.6740-9
 H2O             6.9133-2
 NCO             1.160-14
 *NH             1.310-14
 NH2             4.610-11
 NH3             1.1718-5
 NH2OH           3.071-16
 *NO             1.225-11
 *N2             5.0445-1
 N2H2            3.681-16
 N2O             6.551-16
 *O              2.725-15
 *OH             1.8822-9
 *O2             3.682-16

  * THERMODYNAMIC PROPERTIES FITTED TO 20000.K









         THERMODYNAMIC EQUILIBRIUM COMBUSTION PROPERTIES AT ASSIGNED

                                   PRESSURES

 CASE =                

             REACTANT                       MOLES         ENERGY      TEMP
                                                         KJ/KG-MOL      K
 FUEL        CH4                          0.8500000    -74533.907    300.000
 OXIDANT     O2                           2.3000000        54.358    300.000
 OXIDANT     N2                           8.6524000        53.881    300.000
 FUEL        C2H6                         0.1000000    -83754.210    300.000
 FUEL        C3H8                         0.0500000   -104543.521    300.000

 O/F=    6.44802  %FUEL= 13.426380  R,EQ.RATIO= 2.600000  PHI,EQ.RATIO= 2.600000

 THERMODYNAMIC PROPERTIES

 P, BAR            1.0000
 T, K             1233.83
 RHO, KG/CU M    2.0340-1
 H, KJ/KG         -546.59
 U, KJ/KG        -1038.23
 G, KJ/KG        -14229.7
 S, KJ/(KG)(K)    11.0899

 M, (1/n)          20.866
 (dLV/dLP)t      -1.00006
 (dLV/dLT)p        1.0006
 Cp, KJ/(KG)(K)    1.7083
 GAMMAs            1.3046
 SON VEL,M/SEC      800.9

 MOLE FRACTIONS

 CH3             1.474-10
 CH2OH           1.234-14
 CH3O            2.938-16
 CH4             1.0596-5
 CH3OH           2.896-11
 *CN             4.652-16
 *CO             1.5474-1
 *CO2            2.3614-2
 COOH            7.011-12
 C2H2,acetylene  7.383-12
 CH2CO,ketene    3.283-11
 CH3CN           4.069-12
 CH3CO,acetyl    7.549-16
 C2H4            1.442-11
 CH3CHO,ethanal  1.299-13
 CH3COOH         7.005-15
 C2H6            3.978-13
 C2N2            1.117-15
 C3O2            6.147-16
 *H              1.8821-7
 HCN             5.6738-7
 HCO             1.651-10
 HNC             2.7688-9
 HNCO            4.0207-8
 HNO             3.373-16
 *H2             2.6596-1
 HCHO,formaldehy 2.0145-8
 HCOOH           6.5559-9
 H2O             6.1009-2
 NCO             4.300-15
 *NH             3.093-15
 NH2             2.273-11
 NH3             1.5874-5
 NH2OH           1.251-16
 *NO             2.508-12
 *N2             4.9465-1
 N2H2            1.647-16
 N2O             1.367-16
 *O              2.902-16
 *OH             5.022-10

  * THERMODYNAMIC PROPERTIES FITTED TO 20000.K









         THERMODYNAMIC EQUILIBRIUM COMBUSTION PROPERTIES AT ASSIGNED

                                   PRESSURES

 CASE =                

             REACTANT                       MOLES         ENERGY      TEMP
                                                         KJ/KG-MOL      K
 FUEL        CH4                          0.8500000    -74533.907    300.000
 OXIDANT     O2                           2.3000000        54.358    300.000
 OXIDANT     N2                           8.6524000        53.881    300.000
 FUEL        C2H6                         0.1000000    -83754.210    300.000
 FUEL        C3H8                         0.0500000   -104543.521    300.000

 O/F=    6.20921  %FUEL= 13.871148  R,EQ.RATIO= 2.700000  PHI,EQ.RATIO= 2.700000

 THERMODYNAMIC PROPERTIES

 P, BAR            1.0000
 T, K             1181.16
 RHO, KG/CU M    2.0951-1
 H, KJ/KG         -564.75
 U, KJ/KG        -1042.06
 G, KJ/KG        -13708.2
 S, KJ/(KG)(K)    11.1276

 M, (1/n)          20.575
 (dLV/dLP)t      -1.00018
 (dLV/dLT)p        1.0020
 Cp, KJ/(KG)(K)    1.7252
 GAMMAs            1.3072
 SON VEL,M/SEC      789.9

 MOLE FRACTIONS

 CH3             1.957-10
 CH2OH           9.413-15
 CH3O            1.924-16
 CH4             3.8729-5
 CH3OH           5.190-11
 *CN             1.538-16
 *CO             1.5855-1
 *CO2            2.3118-2
 COOH            3.249-12
 C2H2,acetylene  1.460-11
 CH2CO,ketene    6.160-11
 CH3CN           1.702-11
 CH3CO,acetyl    1.239-15
 C2H4            6.772-11
 CH3CHO,ethanal  4.432-13
 CH3COOH         2.089-14
 C2H5            3.143-16
 C2H6            3.665-12
 C2N2            1.401-15
 C3H6,propylene  1.382-16
 C3O2            8.012-16
 *H              7.3106-8
 HCN             7.2845-7
 HCO             9.032-11
 HNC             2.7069-9
 HNCO            4.3393-8
 *H2             2.7983-1
 HCHO,formaldehy 2.2252-8
 HCOOH           6.4077-9
 H2O             5.3195-2
 NCO             1.498-15
 *NH             6.660-16
 NH2             1.064-11
 NH3             2.1639-5
 *NO             4.686-13
 *N2             4.8524-1
 *OH             1.236-10

  * THERMODYNAMIC PROPERTIES FITTED TO 20000.K









         THERMODYNAMIC EQUILIBRIUM COMBUSTION PROPERTIES AT ASSIGNED

                                   PRESSURES

 CASE =                

             REACTANT                       MOLES         ENERGY      TEMP
                                                         KJ/KG-MOL      K
 FUEL        CH4                          0.8500000    -74533.907    300.000
 OXIDANT     O2                           2.3000000        54.358    300.000
 OXIDANT     N2                           8.6524000        53.881    300.000
 FUEL        C2H6                         0.1000000    -83754.210    300.000
 FUEL        C3H8                         0.0500000   -104543.521    300.000

 O/F=    5.98745  %FUEL= 14.311370  R,EQ.RATIO= 2.800000  PHI,EQ.RATIO= 2.800000

 THERMODYNAMIC PROPERTIES

 P, BAR            1.0000
 T, K             1130.24
 RHO, KG/CU M    2.1600-1
 H, KJ/KG         -582.74
 U, KJ/KG        -1045.69
 G, KJ/KG        -13197.3
 S, KJ/(KG)(K)    11.1609

 M, (1/n)          20.299
 (dLV/dLP)t      -1.00062
 (dLV/dLT)p        1.0076
 Cp, KJ/(KG)(K)    1.7645
 GAMMAs            1.3073
 SON VEL,M/SEC      778.0

 MOLE FRACTIONS

 CH3             2.591-10
 CH2OH           6.970-15
 CH3O            1.215-16
 CH4             1.4886-4
 CH3OH           9.430-11
 *CO             1.6217-1
 *CO2            2.2635-2
 COOH            1.439-12
 C2H2,acetylene  2.944-11
 CH2CO,ketene    1.179-10
 CH3CN           7.545-11
 CH3CO,acetyl    2.053-15
 C2H4            3.373-10
 CH3CHO,ethanal  1.582-12
 CH3COOH         6.503-14
 C2H5            1.199-15
 C2H6            3.688-11
 C2H5OH          3.541-16
 C2N2            1.765-15
 C3H4,allene     1.183-16
 C3H4,propyne    4.005-16
 C3H6,propylene  1.992-15
 C3O2            1.051-15
 *H              2.6882-8
 HCN             9.4014-7
 HCO             4.746-11
 HNC             2.6205-9
 HNCO            4.6784-8
 *H2             2.9297-1
 HCHO,formaldehy 2.4455-8
 HCOOH           6.2250-9
 H2O             4.5772-2
 NCO             4.917-16
 *NH             1.314-16
 NH2             4.743-12
 NH3             2.9663-5
 *NO             8.014-14
 *N2             4.7627-1
 *OH             2.812-11

  * THERMODYNAMIC PROPERTIES FITTED TO 20000.K









         THERMODYNAMIC EQUILIBRIUM COMBUSTION PROPERTIES AT ASSIGNED

                                   PRESSURES

 CASE =                

             REACTANT                       MOLES         ENERGY      TEMP
                                                         KJ/KG-MOL      K
 FUEL        CH4                          0.8500000    -74533.907    300.000
 OXIDANT     O2                           2.3000000        54.358    300.000
 OXIDANT     N2                           8.6524000        53.881    300.000
 FUEL        C2H6                         0.1000000    -83754.210    300.000
 FUEL        C3H8                         0.0500000   -104543.521    300.000

 O/F=    5.78099  %FUEL= 14.747115  R,EQ.RATIO= 2.900000  PHI,EQ.RATIO= 2.900000

 THERMODYNAMIC PROPERTIES

 P, BAR            1.0000
 T, K             1082.63
 RHO, KG/CU M    2.2269-1
 H, KJ/KG         -600.54
 U, KJ/KG        -1049.60
 G, KJ/KG        -12714.9
 S, KJ/(KG)(K)    11.1898

 M, (1/n)          20.045
 (dLV/dLP)t      -1.00229
 (dLV/dLT)p        1.0300
 Cp, KJ/(KG)(K)    1.8983
 GAMMAs            1.2979
 SON VEL,M/SEC      763.4

 MOLE FRACTIONS

 CH3             3.398-10
 CH2OH           5.061-15
 CH4             5.7725-4
 CH3OH           1.705-10
 *CO             1.6548-1
 *CO2            2.2148-2
 COOH            6.247-13
 C2H2,acetylene  5.933-11
 CH2CO,ketene    2.256-10
 CH3CN           3.388-10
 CH3CO,acetyl    3.380-15
 C2H4            1.6979-9
 CH3CHO,ethanal  5.677-12
 CH3COOH         2.038-13
 C2H5            4.581-15
 C2H6            3.778-10
 C2H5OH          1.867-15
 C2N2            2.223-15
 C3H4,allene     7.222-16
 C3H4,propyne    2.521-15
 C3H6,propylene  2.935-14
 C3H6O,acetone   1.023-16
 C3H8            9.186-16
 C3O2            1.376-15
 *H              9.6638-9
 HCN             1.2117-6
 HCO             2.446-11
 HNC             2.5187-9
 HNCO            5.0270-8
 *H2             3.0483-1
 HCHO,formaldehy 2.6663-8
 HCOOH           6.0090-9
 H2O             3.9003-2
 NCO             1.577-16
 NH2             2.065-12
 NH3             4.0480-5
 *NO             1.325-14
 *N2             4.6792-1
 *OH             6.195-12

  * THERMODYNAMIC PROPERTIES FITTED TO 20000.K









         THERMODYNAMIC EQUILIBRIUM COMBUSTION PROPERTIES AT ASSIGNED

                                   PRESSURES

 CASE =                

             REACTANT                       MOLES         ENERGY      TEMP
                                                         KJ/KG-MOL      K
 FUEL        CH4                          0.8500000    -74533.907    300.000
 OXIDANT     O2                           2.3000000        54.358    300.000
 OXIDANT     N2                           8.6524000        53.881    300.000
 FUEL        C2H6                         0.1000000    -83754.210    300.000
 FUEL        C3H8                         0.0500000   -104543.521    300.000

 O/F=    5.58829  %FUEL= 15.178451  R,EQ.RATIO= 3.000000  PHI,EQ.RATIO= 3.000000

 THERMODYNAMIC PROPERTIES

 P, BAR            1.0000
 T, K             1042.59
 RHO, KG/CU M    2.2885-1
 H, KJ/KG         -618.16
 U, KJ/KG        -1055.12
 G, KJ/KG        -12310.4
 S, KJ/(KG)(K)    11.2146

 M, (1/n)          19.838
 (dLV/dLP)t      -1.00719
 (dLV/dLT)p        1.0987
 Cp, KJ/(KG)(K)    2.3126
 GAMMAs            1.2684
 SON VEL,M/SEC      744.5

 MOLE FRACTIONS

 CH3             4.287-10
 CH2OH           3.733-15
 CH4             1.9507-3
 CH3OH           2.876-10
 *CO             1.6806-1
 *CO2            2.1700-2
 COOH            2.908-13
 C2H2,acetylene  1.108-10
 CH2CO,ketene    4.025-10
 C2H3,vinyl      1.390-16
 CH3CN           1.3090-9
 CH3CO,acetyl    5.243-15
 C2H4            7.2503-9
 CH3CHO,ethanal  1.784-11
 CH3COOH         5.682-13
 C2H5            1.516-14
 C2H6            3.0625-9
 C2H5OH          8.276-15
 C2N2            2.727-15
 C3H4,allene     3.667-15
 C3H4,propyne    1.316-14
 C3H6,propylene  3.302-13
 C3H6,cyclo-     1.764-16
 C3H6O,acetone   9.213-16
 C3H8            1.857-14
 C3O2            1.747-15
 *H              3.7949-9
 HCN             1.5165-6
 HCO             1.329-11
 HNC             2.4129-9
 HNCO            5.3393-8
 *H2             3.1399-1
 HCHO,formaldehy 2.8576-8
 HCOOH           5.7839-9
 H2O             3.3505-2
 NH2             9.612-13
 NH3             5.3192-5
 *NO             2.576-15
 *N2             4.6074-1
 *OH             1.557-12

  * THERMODYNAMIC PROPERTIES FITTED TO 20000.K









         THERMODYNAMIC EQUILIBRIUM COMBUSTION PROPERTIES AT ASSIGNED

                                   PRESSURES

 CASE =                

             REACTANT                       MOLES         ENERGY      TEMP
                                                         KJ/KG-MOL      K
 FUEL        CH4                          0.8500000    -74533.907    300.000
 OXIDANT     O2                           2.3000000        54.358    300.000
 OXIDANT     N2                           8.6524000        53.881    300.000
 FUEL        C2H6                         0.1000000    -83754.210    300.000
 FUEL        C3H8                         0.0500000   -104543.521    300.000

 O/F=    5.40802  %FUEL= 15.605444  R,EQ.RATIO= 3.100000  PHI,EQ.RATIO= 3.100000

 THERMODYNAMIC PROPERTIES

 P, BAR            1.0000
 T, K             1014.06
 RHO, KG/CU M    2.3363-1
 H, KJ/KG         -635.60
 U, KJ/KG        -1063.63
 G, KJ/KG        -12029.5
 S, KJ/(KG)(K)    11.2359

 M, (1/n)          19.698
 (dLV/dLP)t      -1.01574
 (dLV/dLT)p        1.2230
 Cp, KJ/(KG)(K)    3.0891
 GAMMAs            1.2325
 SON VEL,M/SEC      726.3

 MOLE FRACTIONS

 CH3             5.038-10
 CH2OH           2.925-15
 CH4             4.8370-3
 CH3OH           4.219-10
 *CO             1.6950-1
 *CO2            2.1379-2
 COOH            1.621-13
 C2H2,acetylene  1.749-10
 CH2CO,ketene    6.159-10
 C2H3,vinyl      1.796-16
 CH3CN           3.5827-9
 CH3CO,acetyl    7.193-15
 C2H4            2.1348-8
 CH3CHO,ethanal  4.177-11
 CH3COOH         1.219-12
 C2H5            3.667-14
 C2H6            1.4600-8
 C2H5OH          2.502-14
 C2N2            3.147-15
 C3H4,allene     1.224-14
 C3H4,propyne    4.487-14
 C3H5,allyl      3.125-16
 C3H6,propylene  2.008-12
 C3H6,cyclo-     9.631-16
 C3H6O,acetone   4.746-15
 C3H6O,propanal  3.646-16
 C3H8            1.754-13
 C3O2            2.072-15
 C4H6,butadiene  1.099-16
 *H              1.8591-9
 HCN             1.7820-6
 HCO             8.300-12
 HNC             2.3135-9
 HNCO            5.5564-8
 *H2             3.1928-1
 HCHO,formaldehy 2.9848-8
 HCOOH           5.5927-9
 H2O             2.9758-2
 NH2             5.339-13
 NH3             6.4865-5
 *NO             7.430-16
 *N2             4.5518-1
 *OH             5.447-13

  * THERMODYNAMIC PROPERTIES FITTED TO 20000.K









         THERMODYNAMIC EQUILIBRIUM COMBUSTION PROPERTIES AT ASSIGNED

                                   PRESSURES

 CASE =                

             REACTANT                       MOLES         ENERGY      TEMP
                                                         KJ/KG-MOL      K
 FUEL        CH4                          0.8500000    -74533.907    300.000
 OXIDANT     O2                           2.3000000        54.358    300.000
 OXIDANT     N2                           8.6524000        53.881    300.000
 FUEL        C2H6                         0.1000000    -83754.210    300.000
 FUEL        C3H8                         0.0500000   -104543.521    300.000

 O/F=    5.23902  %FUEL= 16.028159  R,EQ.RATIO= 3.200000  PHI,EQ.RATIO= 3.200000

 THERMODYNAMIC PROPERTIES

 P, BAR            1.0000
 T, K              995.05
 RHO, KG/CU M    2.3705-1
 H, KJ/KG         -652.87
 U, KJ/KG        -1074.72
 G, KJ/KG        -11852.0
 S, KJ/(KG)(K)    11.2549

 M, (1/n)          19.612
 (dLV/dLP)t      -1.02494
 (dLV/dLT)p        1.3611
 Cp, KJ/(KG)(K)    3.9826
 GAMMAs            1.2081
 SON VEL,M/SEC      713.9

 MOLE FRACTIONS

 CH3             5.555-10
 CH2OH           2.442-15
 CH4             8.9625-3
 CH3OH           5.442-10
 *CO             1.6998-1
 *CO2            2.1195-2
 COOH            1.077-13
 C2H2,acetylene  2.359-10
 CH2CO,ketene    8.164-10
 C2H3,vinyl      2.100-16
 CH3CN           7.0737-9
 CH3CO,acetyl    8.814-15
 C2H4            4.4264-8
 CH3CHO,ethanal  7.412-11
 CH3COOH         2.047-12
 C2H5            6.610-14
 C2H6            4.2177-8
 C2H5OH          5.284-14
 C2N2            3.424-15
 C3H4,allene     2.751-14
 C3H4,propyne    1.023-13
 C3H5,allyl      7.522-16
 C3H6,propylene  6.826-12
 C3H6,cyclo-     3.037-15
 C3H6O,acetone   1.443-14
 C3H6O,propanal  1.022-15
 C3H8            8.066-13
 C3O2            2.302-15
 C4H6,butadiene  4.477-16
 C4H8,1-butene   1.231-16
 C4H8,tr2-butene 1.077-16
 C4H8,isobutene  1.644-16
 C6H6            3.188-16
 *H              1.1273-9
 HCN             1.9737-6
 HCO             5.943-12
 HNC             2.2232-9
 HNCO            5.6801-8
 *H2             3.2150-1
 HCHO,formaldehy 3.0527-8
 HCOOH           5.4480-9
 H2O             2.7380-2
 NH2             3.522-13
 NH3             7.3919-5
 *NO             3.132-16
 *N2             4.5091-1
 *OH             2.622-13

  * THERMODYNAMIC PROPERTIES FITTED TO 20000.K









         THERMODYNAMIC EQUILIBRIUM COMBUSTION PROPERTIES AT ASSIGNED

                                   PRESSURES

 CASE =                

             REACTANT                       MOLES         ENERGY      TEMP
                                                         KJ/KG-MOL      K
 FUEL        CH4                          0.8500000    -74533.907    300.000
 OXIDANT     O2                           2.3000000        54.358    300.000
 OXIDANT     N2                           8.6524000        53.881    300.000
 FUEL        C2H6                         0.1000000    -83754.210    300.000
 FUEL        C3H8                         0.0500000   -104543.521    300.000

 O/F=    5.08026  %FUEL= 16.446661  R,EQ.RATIO= 3.300000  PHI,EQ.RATIO= 3.300000

 THERMODYNAMIC PROPERTIES

 P, BAR            1.0000
 T, K              985.35
 RHO, KG/CU M    2.3873-1
 H, KJ/KG         -669.96
 U, KJ/KG        -1088.84
 G, KJ/KG        -11777.2
 S, KJ/(KG)(K)    11.2723

 M, (1/n)          19.559
 MW, MOL WT        19.481
 (dLV/dLP)t      -1.03974
 (dLV/dLT)p        1.6532
 Cp, KJ/(KG)(K)    6.5179
 GAMMAs            1.1608
 SON VEL,M/SEC      697.3

 MOLE FRACTIONS

 CH3             5.550-10
 CH2OH           2.192-15
 CH4             1.1788-2
 CH3OH           6.152-10
 *CO             1.6672-1
 *CO2            2.1482-2
 COOH            8.874-14
 C2H2,acetylene  2.472-10
 CH2CO,ketene    8.813-10
 C2H3,vinyl      2.047-16
 CH3CN           9.0643-9
 CH3CO,acetyl    9.154-15
 C2H4            5.8420-8
 CH3CHO,ethanal  9.373-11
 CH3COOH         2.614-12
 C2H5            8.126-14
 C2H6            6.6578-8
 C2H5OH          7.357-14
 C2N2            3.181-15
 C3H4,allene     3.583-14
 C3H4,propyne    1.342-13
 C3H5,allyl      1.018-15
 C3H6,propylene  1.110-11
 C3H6,cyclo-     4.748-15
 C3H6O,acetone   2.301-14
 C3H6O,propanal  1.563-15
 C3H8            1.545-12
 C3O2            2.218-15
 C4H6,butadiene  7.576-16
 C4H8,1-butene   2.429-16
 C4H8,cis2-buten 1.865-16
 C4H8,tr2-butene 2.154-16
 C4H8,isobutene  3.310-16
 C6H6            7.657-16
 *H              8.658-10
 HCN             1.9643-6
 HCO             4.897-12
 HNC             2.0537-9
 HNCO            5.6344-8
 *H2             3.2301-1
 HCHO,formaldehy 3.0405-8
 HCOOH           5.4994-9
 H2O             2.7272-2
 NH2             2.830-13
 NH3             7.9330-5
 *NO             2.058-16
 *N2             4.4566-1
 *OH             1.854-13
 C(gr)           3.9958-3

  * THERMODYNAMIC PROPERTIES FITTED TO 20000.K









         THERMODYNAMIC EQUILIBRIUM COMBUSTION PROPERTIES AT ASSIGNED

                                   PRESSURES

 CASE =                

             REACTANT                       MOLES         ENERGY      TEMP
                                                         KJ/KG-MOL      K
 FUEL        CH4                          0.8500000    -74533.907    300.000
 OXIDANT     O2                           2.3000000        54.358    300.000
 OXIDANT     N2                           8.6524000        53.881    300.000
 FUEL        C2H6                         0.1000000    -83754.210    300.000
 FUEL        C3H8                         0.0500000   -104543.521    300.000

 O/F=    4.93084  %FUEL= 16.861012  R,EQ.RATIO= 3.400000  PHI,EQ.RATIO= 3.400000

 THERMODYNAMIC PROPERTIES

 P, BAR            1.0000
 T, K              980.61
 RHO, KG/CU M    2.3934-1
 H, KJ/KG         -686.89
 U, KJ/KG        -1104.70
 G, KJ/KG        -11757.2
 S, KJ/(KG)(K)    11.2892

 M, (1/n)          19.514
 MW, MOL WT        19.282
 (dLV/dLP)t      -1.04115
 (dLV/dLT)p        1.6756
 Cp, KJ/(KG)(K)    6.7090
 GAMMAs            1.1590
 SON VEL,M/SEC      695.9

 MOLE FRACTIONS

 CH3             5.187-10
 CH2OH           2.048-15
 CH4             1.2690-2
 CH3OH           6.479-10
 *CO             1.6028-1
 *CO2            2.2135-2
 COOH            8.293-14
 C2H2,acetylene  2.179-10
 CH2CO,ketene    8.314-10
 C2H3,vinyl      1.750-16
 CH3CN           8.8595-9
 CH3CO,acetyl    8.516-15
 C2H4            5.8340-8
 CH3CHO,ethanal  9.663-11
 CH3COOH         2.856-12
 C2H5            7.875-14
 C2H6            7.3412-8
 C2H5OH          8.038-14
 C2N2            2.606-15
 C3H4,allene     3.292-14
 C3H4,propyne    1.238-13
 C3H5,allyl      9.586-16
 C3H6,propylene  1.150-11
 C3H6,cyclo-     4.826-15
 C3H6O,acetone   2.490-14
 C3H6O,propanal  1.656-15
 C3H8            1.755-12
 C3O2            1.911-15
 C4H6,butadiene  7.415-16
 C4H8,1-butene   2.593-16
 C4H8,cis2-buten 2.002-16
 C4H8,tr2-butene 2.315-16
 C4H8,isobutene  3.568-16
 C6H6            7.647-16
 *H              7.590-10
 HCN             1.8102-6
 HCO             4.340-12
 HNC             1.8239-9
 HNCO            5.4661-8
 *H2             3.2516-1
 HCHO,formaldehy 2.9760-8
 HCOOH           5.7139-9
 H2O             2.8824-2
 NH2             2.546-13
 NH3             8.2798-5
 *NO             1.749-16
 *N2             4.3893-1
 *OH             1.645-13
 C(gr)           1.1885-2

  * THERMODYNAMIC PROPERTIES FITTED TO 20000.K









         THERMODYNAMIC EQUILIBRIUM COMBUSTION PROPERTIES AT ASSIGNED

                                   PRESSURES

 CASE =                

             REACTANT                       MOLES         ENERGY      TEMP
                                                         KJ/KG-MOL      K
 FUEL        CH4                          0.8500000    -74533.907    300.000
 OXIDANT     O2                           2.3000000        54.358    300.000
 OXIDANT     N2                           8.6524000        53.881    300.000
 FUEL        C2H6                         0.1000000    -83754.210    300.000
 FUEL        C3H8                         0.0500000   -104543.521    300.000

 O/F=    4.78996  %FUEL= 17.271274  R,EQ.RATIO= 3.500000  PHI,EQ.RATIO= 3.500000

 THERMODYNAMIC PROPERTIES

 P, BAR            1.0000
 T, K              976.07
 RHO, KG/CU M    2.3992-1
 H, KJ/KG         -703.65
 U, KJ/KG        -1120.44
 G, KJ/KG        -11738.7
 S, KJ/(KG)(K)    11.3056

 M, (1/n)          19.471
 MW, MOL WT        19.092
 (dLV/dLP)t      -1.04249
 (dLV/dLT)p        1.6965
 Cp, KJ/(KG)(K)    6.8878
 GAMMAs            1.1573
 SON VEL,M/SEC      694.5

 MOLE FRACTIONS

 CH3             4.855-10
 CH2OH           1.915-15
 CH4             1.3619-2
 CH3OH           6.799-10
 *CO             1.5411-1
 *CO2            2.2732-2
 COOH            7.747-14
 C2H2,acetylene  1.928-10
 CH2CO,ketene    7.846-10
 C2H3,vinyl      1.503-16
 CH3CN           8.6605-9
 CH3CO,acetyl    7.927-15
 C2H4            5.8223-8
 CH3CHO,ethanal  9.933-11
 CH3COOH         3.101-12
 C2H5            7.633-14
 C2H6            8.0614-8
 C2H5OH          8.738-14
 C2N2            2.148-15
 C3H4,allene     3.030-14
 C3H4,propyne    1.144-13
 C3H5,allyl      9.034-16
 C3H6,propylene  1.190-11
 C3H6,cyclo-     4.897-15
 C3H6O,acetone   2.683-14
 C3H6O,propanal  1.748-15
 C3H8            1.982-12
 C3O2            1.650-15
 C4H6,butadiene  7.256-16
 C4H8,1-butene   2.759-16
 C4H8,cis2-buten 2.142-16
 C4H8,tr2-butene 2.478-16
 C4H8,isobutene  3.831-16
 C6H6            7.630-16
 *H              6.681-10
 HCN             1.6721-6
 HCO             3.857-12
 HNC             1.6256-9
 HNCO            5.3004-8
 *H2             3.2716-1
 HCHO,formaldehy 2.9104-8
 HCOOH           5.9136-9
 H2O             3.0365-2
 NH2             2.297-13
 NH3             8.6249-5
 *NO             1.492-16
 *N2             4.3245-1
 *OH             1.463-13
 C(gr)           1.9481-2

  * THERMODYNAMIC PROPERTIES FITTED TO 20000.K









         THERMODYNAMIC EQUILIBRIUM COMBUSTION PROPERTIES AT ASSIGNED

                                   PRESSURES

 CASE =                

             REACTANT                       MOLES         ENERGY      TEMP
                                                         KJ/KG-MOL      K
 FUEL        CH4                          0.8500000    -74533.907    300.000
 OXIDANT     O2                           2.3000000        54.358    300.000
 OXIDANT     N2                           8.6524000        53.881    300.000
 FUEL        C2H6                         0.1000000    -83754.210    300.000
 FUEL        C3H8                         0.0500000   -104543.521    300.000

 O/F=    4.65691  %FUEL= 17.677507  R,EQ.RATIO= 3.600000  PHI,EQ.RATIO= 3.600000

 THERMODYNAMIC PROPERTIES

 P, BAR            1.0000
 T, K              971.70
 RHO, KG/CU M    2.4049-1
 H, KJ/KG         -720.24
 U, KJ/KG        -1136.06
 G, KJ/KG        -11721.6
 S, KJ/(KG)(K)    11.3217

 M, (1/n)          19.430
 MW, MOL WT        18.909
 (dLV/dLP)t      -1.04375
 (dLV/dLT)p        1.7159
 Cp, KJ/(KG)(K)    7.0549
 GAMMAs            1.1559
 SON VEL,M/SEC      693.3

 MOLE FRACTIONS

 CH3             4.551-10
 CH2OH           1.791-15
 CH4             1.4575-2
 CH3OH           7.112-10
 *CO             1.4817-1
 *CO2            2.3275-2
 COOH            7.234-14
 C2H2,acetylene  1.711-10
 CH2CO,ketene    7.406-10
 C2H3,vinyl      1.296-16
 CH3CN           8.4669-9
 CH3CO,acetyl    7.382-15
 C2H4            5.8070-8
 CH3CHO,ethanal  1.018-10
 CH3COOH         3.350-12
 C2H5            7.399-14
 C2H6            8.8185-8
 C2H5OH          9.455-14
 C2N2            1.781-15
 C3H4,allene     2.795-14
 C3H4,propyne    1.059-13
 C3H5,allyl      8.522-16
 C3H6,propylene  1.228-11
 C3H6,cyclo-     4.963-15
 C3H6O,acetone   2.877-14
 C3H6O,propanal  1.838-15
 C3H8            2.228-12
 C3O2            1.428-15
 C4H6,butadiene  7.097-16
 C4H8,1-butene   2.926-16
 C4H8,cis2-buten 2.284-16
 C4H8,tr2-butene 2.644-16
 C4H8,isobutene  4.100-16
 C6H6            7.605-16
 *H              5.902-10
 HCN             1.5478-6
 HCO             3.435-12
 HNC             1.4535-9
 HNCO            5.1376-8
 *H2             3.2899-1
 HCHO,formaldehy 2.8440-8
 HCOOH           6.0986-9
 H2O             3.1892-2
 NH2             2.078-13
 NH3             8.9684-5
 *NO             1.277-16
 *N2             4.2621-1
 *OH             1.304-13
 C(gr)           2.6795-2

  * THERMODYNAMIC PROPERTIES FITTED TO 20000.K



