
 *******************************************************************************

         NASA-GLENN CHEMICAL EQUILIBRIUM PROGRAM CEA2, MAY 21, 2004
                   BY  BONNIE MCBRIDE AND SANFORD GORDON
      REFS: NASA RP-1311, PART I, 1994 AND NASA RP-1311, PART II, 1996

 *******************************************************************************



 problem    phi,eq.ratio=3.7,3.8,3.9,4,
       hp   p,bar=1,  t,k=3800
 react
   fuel=CH4 moles=0.85 t,k=300
   oxid=O2 moles=2.3 t,k=300
   oxid=N2 moles=8.6524 t,k=300
   fuel=C2H6 moles=0.1 t,k=300
   fuel=C3H8 moles=0.05 t,k=300
 output
      trace=1e-16 siunits short
 end




         THERMODYNAMIC EQUILIBRIUM COMBUSTION PROPERTIES AT ASSIGNED

                                   PRESSURES

 CASE =                

             REACTANT                       MOLES         ENERGY      TEMP
                                                         KJ/KG-MOL      K
 FUEL        CH4                          0.8500000    -74533.907    300.000
 OXIDANT     O2                           2.3000000        54.358    300.000
 OXIDANT     N2                           8.6524000        53.881    300.000
 FUEL        C2H6                         0.1000000    -83754.210    300.000
 FUEL        C3H8                         0.0500000   -104543.521    300.000

 O/F=    4.53104  %FUEL= 18.079769  R,EQ.RATIO= 3.700000  PHI,EQ.RATIO= 3.700000

 THERMODYNAMIC PROPERTIES

 P, BAR            1.0000
 T, K              967.50
 RHO, KG/CU M    2.4104-1
 H, KJ/KG         -736.67
 U, KJ/KG        -1151.55
 G, KJ/KG        -11705.5
 S, KJ/(KG)(K)    11.3374

 M, (1/n)          19.390
 MW, MOL WT        18.733
 (dLV/dLP)t      -1.04496
 (dLV/dLT)p        1.7341
 Cp, KJ/(KG)(K)    7.2106
 GAMMAs            1.1546
 SON VEL,M/SEC      692.1

 MOLE FRACTIONS

 CH3             4.272-10
 CH2OH           1.675-15
 CH4             1.5559-2
 CH3OH           7.417-10
 *CO             1.4248-1
 *CO2            2.3766-2
 COOH            6.753-14
 C2H2,acetylene  1.524-10
 CH2CO,ketene    6.992-10
 C2H3,vinyl      1.121-16
 CH3CN           8.2781-9
 CH3CO,acetyl    6.878-15
 C2H4            5.7882-8
 CH3CHO,ethanal  1.042-10
 CH3COOH         3.602-12
 C2H5            7.172-14
 C2H6            9.6127-8
 C2H5OH          1.019-13
 C2N2            1.484-15
 C3H4,allene     2.582-14
 C3H4,propyne    9.812-14
 C3H5,allyl      8.045-16
 C3H6,propylene  1.265-11
 C3H6,cyclo-     5.022-15
 C3H6O,acetone   3.073-14
 C3H6O,propanal  1.926-15
 C3H8            2.493-12
 C3O2            1.239-15
 C4H6,butadiene  6.939-16
 C4H8,1-butene   3.093-16
 C4H8,cis2-buten 2.428-16
 C4H8,tr2-butene 2.812-16
 C4H8,isobutene  4.374-16
 C6H6            7.574-16
 *H              5.231-10
 HCN             1.4356-6
 HCO             3.065-12
 HNC             1.3034-9
 HNCO            4.9778-8
 *H2             3.3068-1
 HCHO,formaldehy 2.7770-8
 HCOOH           6.2689-9
 H2O             3.3404-2
 NH2             1.884-13
 NH3             9.3102-5
 *NO             1.097-16
 *N2             4.2018-1
 *OH             1.165-13
 C(gr)           3.3838-2

  * THERMODYNAMIC PROPERTIES FITTED TO 20000.K









         THERMODYNAMIC EQUILIBRIUM COMBUSTION PROPERTIES AT ASSIGNED

                                   PRESSURES

 CASE =                

             REACTANT                       MOLES         ENERGY      TEMP
                                                         KJ/KG-MOL      K
 FUEL        CH4                          0.8500000    -74533.907    300.000
 OXIDANT     O2                           2.3000000        54.358    300.000
 OXIDANT     N2                           8.6524000        53.881    300.000
 FUEL        C2H6                         0.1000000    -83754.210    300.000
 FUEL        C3H8                         0.0500000   -104543.521    300.000

 O/F=    4.41181  %FUEL= 18.478120  R,EQ.RATIO= 3.800000  PHI,EQ.RATIO= 3.800000

 THERMODYNAMIC PROPERTIES

 P, BAR            1.0000
 T, K              963.43
 RHO, KG/CU M    2.4157-1
 H, KJ/KG         -752.95
 U, KJ/KG        -1166.91
 G, KJ/KG        -11690.5
 S, KJ/(KG)(K)    11.3527

 M, (1/n)          19.351
 MW, MOL WT        18.565
 (dLV/dLP)t      -1.04610
 (dLV/dLT)p        1.7510
 Cp, KJ/(KG)(K)    7.3556
 GAMMAs            1.1534
 SON VEL,M/SEC      691.0

 MOLE FRACTIONS

 CH3             4.014-10
 CH2OH           1.567-15
 CH4             1.6570-2
 CH3OH           7.714-10
 *CO             1.3701-1
 *CO2            2.4207-2
 COOH            6.303-14
 C2H2,acetylene  1.360-10
 CH2CO,ketene    6.603-10
 CH3CN           8.0939-9
 CH3CO,acetyl    6.411-15
 C2H4            5.7659-8
 CH3CHO,ethanal  1.063-10
 CH3COOH         3.854-12
 C2H5            6.952-14
 C2H6            1.0444-7
 C2H5OH          1.093-13
 C2N2            1.242-15
 C3H4,allene     2.388-14
 C3H4,propyne    9.107-14
 C3H5,allyl      7.600-16
 C3H6,propylene  1.300-11
 C3H6,cyclo-     5.075-15
 C3H6O,acetone   3.270-14
 C3H6O,propanal  2.012-15
 C3H8            2.777-12
 C3O2            1.076-15
 C4H6,butadiene  6.782-16
 C4H8,1-butene   3.261-16
 C4H8,cis2-buten 2.573-16
 C4H8,tr2-butene 2.982-16
 C4H8,isobutene  4.651-16
 C6H6            7.535-16
 *H              4.651-10
 HCN             1.3338-6
 HCO             2.740-12
 HNC             1.1718-9
 HNCO            4.8214-8
 *H2             3.3223-1
 HCHO,formaldehy 2.7098-8
 HCOOH           6.4248-9
 H2O             3.4900-2
 NH2             1.712-13
 NH3             9.6504-5
 *N2             4.1437-1
 *OH             1.043-13
 C(gr)           4.0620-2

  * THERMODYNAMIC PROPERTIES FITTED TO 20000.K









         THERMODYNAMIC EQUILIBRIUM COMBUSTION PROPERTIES AT ASSIGNED

                                   PRESSURES

 CASE =                

             REACTANT                       MOLES         ENERGY      TEMP
                                                         KJ/KG-MOL      K
 FUEL        CH4                          0.8500000    -74533.907    300.000
 OXIDANT     O2                           2.3000000        54.358    300.000
 OXIDANT     N2                           8.6524000        53.881    300.000
 FUEL        C2H6                         0.1000000    -83754.210    300.000
 FUEL        C3H8                         0.0500000   -104543.521    300.000

 O/F=    4.29868  %FUEL= 18.872615  R,EQ.RATIO= 3.900000  PHI,EQ.RATIO= 3.900000

 THERMODYNAMIC PROPERTIES

 P, BAR            1.0000
 T, K              959.50
 RHO, KG/CU M    2.4209-1
 H, KJ/KG         -769.06
 U, KJ/KG        -1182.14
 G, KJ/KG        -11676.3
 S, KJ/(KG)(K)    11.3677

 M, (1/n)          19.313
 MW, MOL WT        18.402
 (dLV/dLP)t      -1.04718
 (dLV/dLT)p        1.7667
 Cp, KJ/(KG)(K)    7.4902
 GAMMAs            1.1524
 SON VEL,M/SEC      689.9

 MOLE FRACTIONS

 CH3             3.776-10
 CH2OH           1.467-15
 CH4             1.7607-2
 CH3OH           8.002-10
 *CO             1.3176-1
 *CO2            2.4602-2
 COOH            5.880-14
 C2H2,acetylene  1.217-10
 CH2CO,ketene    6.237-10
 CH3CN           7.9138-9
 CH3CO,acetyl    5.977-15
 C2H4            5.7405-8
 CH3CHO,ethanal  1.083-10
 CH3COOH         4.108-12
 C2H5            6.738-14
 C2H6            1.1313-7
 C2H5OH          1.169-13
 C2N2            1.044-15
 C3H4,allene     2.211-14
 C3H4,propyne    8.461-14
 C3H5,allyl      7.183-16
 C3H6,propylene  1.335-11
 C3H6,cyclo-     5.122-15
 C3H6O,acetone   3.468-14
 C3H6O,propanal  2.095-15
 C3H8            3.081-12
 C3O2            9.365-16
 C4H6,butadiene  6.625-16
 C4H8,1-butene   3.429-16
 C4H8,cis2-buten 2.720-16
 C4H8,tr2-butene 3.153-16
 C4H8,isobutene  4.932-16
 C6H6            7.490-16
 *H              4.146-10
 HCN             1.2413-6
 HCO             2.454-12
 HNC             1.0561-9
 HNCO            4.6683-8
 *H2             3.3364-1
 HCHO,formaldehy 2.6425-8
 HCOOH           6.5666-9
 H2O             3.6379-2
 NH2             1.559-13
 NH3             9.9890-5
 *N2             4.0876-1
 *OH             9.346-14
 C(gr)           4.7152-2

  * THERMODYNAMIC PROPERTIES FITTED TO 20000.K









         THERMODYNAMIC EQUILIBRIUM COMBUSTION PROPERTIES AT ASSIGNED

                                   PRESSURES

 CASE =                

             REACTANT                       MOLES         ENERGY      TEMP
                                                         KJ/KG-MOL      K
 FUEL        CH4                          0.8500000    -74533.907    300.000
 OXIDANT     O2                           2.3000000        54.358    300.000
 OXIDANT     N2                           8.6524000        53.881    300.000
 FUEL        C2H6                         0.1000000    -83754.210    300.000
 FUEL        C3H8                         0.0500000   -104543.521    300.000

 O/F=    4.19122  %FUEL= 19.263310  R,EQ.RATIO= 4.000000  PHI,EQ.RATIO= 4.000000

 THERMODYNAMIC PROPERTIES

 P, BAR            1.0000
 T, K              955.69
 RHO, KG/CU M    2.4259-1
 H, KJ/KG         -785.02
 U, KJ/KG        -1197.23
 G, KJ/KG        -11662.9
 S, KJ/(KG)(K)    11.3823

 M, (1/n)          19.277
 MW, MOL WT        18.246
 (dLV/dLP)t      -1.04821
 (dLV/dLT)p        1.7814
 Cp, KJ/(KG)(K)    7.6152
 GAMMAs            1.1515
 SON VEL,M/SEC      688.9

 MOLE FRACTIONS

 CH3             3.555-10
 CH2OH           1.373-15
 CH4             1.8672-2
 CH3OH           8.282-10
 *CO             1.2672-1
 *CO2            2.4952-2
 COOH            5.484-14
 C2H2,acetylene  1.092-10
 CH2CO,ketene    5.891-10
 CH3CN           7.7378-9
 CH3CO,acetyl    5.574-15
 C2H4            5.7120-8
 CH3CHO,ethanal  1.100-10
 CH3COOH         4.361-12
 C2H5            6.530-14
 C2H6            1.2220-7
 C2H5OH          1.246-13
 C2N2            8.813-16
 C3H4,allene     2.050-14
 C3H4,propyne    7.870-14
 C3H5,allyl      6.792-16
 C3H6,propylene  1.368-11
 C3H6,cyclo-     5.163-15
 C3H6O,acetone   3.666-14
 C3H6O,propanal  2.176-15
 C3H8            3.406-12
 C3O2            8.162-16
 C4H6,butadiene  6.469-16
 C4H8,1-butene   3.597-16
 C4H8,cis2-buten 2.867-16
 C4H8,tr2-butene 3.325-16
 C4H8,isobutene  5.216-16
 C6H6            7.439-16
 *H              3.705-10
 HCN             1.1568-6
 HCO             2.201-12
 HNC             9.539-10
 HNCO            4.5188-8
 *H2             3.3493-1
 HCHO,formaldehy 2.5753-8
 HCOOH           6.6946-9
 H2O             3.7840-2
 NH2             1.422-13
 NH3             1.0326-4
 *N2             4.0334-1
 *OH             8.390-14
 C(gr)           5.3443-2

  * THERMODYNAMIC PROPERTIES FITTED TO 20000.K



