
 *******************************************************************************

         NASA-GLENN CHEMICAL EQUILIBRIUM PROGRAM CEA2, MAY 21, 2004
                   BY  BONNIE MCBRIDE AND SANFORD GORDON
      REFS: NASA RP-1311, PART I, 1994 AND NASA RP-1311, PART II, 1996

 *******************************************************************************



 problem    phi,eq.ratio=3.7,3.8,3.9,4,
       hp   p,bar=1,  t,k=3800
 react
   fuel=CO moles=0.5 t,k=300
   oxid=O2 moles=1 t,k=300
   fuel=H2 moles=0.5 t,k=300
 output
      trace=1e-16 siunits short
 end




         THERMODYNAMIC EQUILIBRIUM COMBUSTION PROPERTIES AT ASSIGNED

                                   PRESSURES

 CASE =                

             REACTANT                       MOLES         ENERGY      TEMP
                                                         KJ/KG-MOL      K
 FUEL        CO                           0.5000000   -110481.283    300.000
 OXIDANT     O2                           1.0000000        54.358    300.000
 FUEL        H2                           0.5000000        53.359    300.000

 O/F=    0.28803  %FUEL= 77.638061  R,EQ.RATIO= 1.947368  PHI,EQ.RATIO= 3.700000

 THERMODYNAMIC PROPERTIES

 P, BAR            1.0000
 T, K             2152.19
 RHO, KG/CU M    1.0792-1
 H, KJ/KG        -2854.95
 U, KJ/KG        -3781.52
 G, KJ/KG        -31354.2
 S, KJ/(KG)(K)    13.2420

 M, (1/n)          19.313
 (dLV/dLP)t      -1.00064
 (dLV/dLT)p        1.0165
 Cp, KJ/(KG)(K)    2.3330
 GAMMAs            1.2346
 SON VEL,M/SEC     1069.6

 MOLE FRACTIONS

 *C              2.613-14
 *CH             4.459-14
 CH2             2.025-12
 CH3             1.571-10
 CH2OH           1.447-12
 CH3O            1.678-13
 CH4             1.0301-9
 CH3OH           1.330-12
 *CO             4.3790-1
 *CO2            6.1464-2
 COOH            3.1204-8
 C2H             2.303-16
 C2H2,acetylene  9.526-13
 C2H2,vinylidene 1.877-16
 CH2CO,ketene    3.844-12
 O(CH)2O         1.394-15
 CH3CO,acetyl    4.533-16
 C2H4            8.585-16
 C2O             2.005-13
 C3O2            5.373-15
 *H              2.3042-3
 HCO             2.5751-7
 HCCO            7.354-14
 HO2             3.577-10
 *H2             2.8987-1
 HCHO,formaldehy 5.2018-8
 HCOOH           3.5131-8
 H2O             2.0822-1
 H2O2            3.760-10
 *O              1.1946-6
 *OH             2.4009-4
 *O2             3.6348-7

  * THERMODYNAMIC PROPERTIES FITTED TO 20000.K









         THERMODYNAMIC EQUILIBRIUM COMBUSTION PROPERTIES AT ASSIGNED

                                   PRESSURES

 CASE =                

             REACTANT                       MOLES         ENERGY      TEMP
                                                         KJ/KG-MOL      K
 FUEL        CO                           0.5000000   -110481.283    300.000
 OXIDANT     O2                           1.0000000        54.358    300.000
 FUEL        H2                           0.5000000        53.359    300.000

 O/F=    0.28045  %FUEL= 78.097644  R,EQ.RATIO= 1.965517  PHI,EQ.RATIO= 3.800000

 THERMODYNAMIC PROPERTIES

 P, BAR            1.0000
 T, K             2115.97
 RHO, KG/CU M    1.0915-1
 H, KJ/KG        -2871.86
 U, KJ/KG        -3788.00
 G, KJ/KG        -30913.8
 S, KJ/(KG)(K)    13.2525

 M, (1/n)          19.204
 (dLV/dLP)t      -1.00051
 (dLV/dLT)p        1.0135
 Cp, KJ/(KG)(K)    2.3029
 GAMMAs            1.2386
 SON VEL,M/SEC     1065.2

 MOLE FRACTIONS

 *C              1.573-14
 *CH             3.055-14
 CH2             1.716-12
 CH3             1.704-10
 CH2OH           1.377-12
 CH3O            1.533-13
 CH4             1.3929-9
 CH3OH           1.529-12
 *CO             4.3929-1
 *CO2            6.0198-2
 COOH            2.6043-8
 C2H             1.942-16
 C2H2,acetylene  1.124-12
 C2H2,vinylidene 1.867-16
 CH2CO,ketene    4.440-12
 O(CH)2O         1.399-15
 CH3CO,acetyl    5.088-16
 C2H4            1.234-15
 CH3CHO,ethanal  1.231-16
 C2O             1.630-13
 C3O2            5.626-15
 *H              1.8731-3
 HCO             2.2582-7
 HCCO            6.754-14
 HO2             2.012-10
 *H2             2.9595-1
 HCHO,formaldehy 5.3371-8
 HCOOH           3.4485-8
 H2O             2.0251-1
 H2O2            2.464-10
 *O              7.0066-7
 *OH             1.7573-4
 *O2             2.0388-7

  * THERMODYNAMIC PROPERTIES FITTED TO 20000.K









         THERMODYNAMIC EQUILIBRIUM COMBUSTION PROPERTIES AT ASSIGNED

                                   PRESSURES

 CASE =                

             REACTANT                       MOLES         ENERGY      TEMP
                                                         KJ/KG-MOL      K
 FUEL        CO                           0.5000000   -110481.283    300.000
 OXIDANT     O2                           1.0000000        54.358    300.000
 FUEL        H2                           0.5000000        53.359    300.000

 O/F=    0.27326  %FUEL= 78.538716  R,EQ.RATIO= 1.983051  PHI,EQ.RATIO= 3.900000

 THERMODYNAMIC PROPERTIES

 P, BAR            1.0000
 T, K             2080.90
 RHO, KG/CU M    1.1039-1
 H, KJ/KG        -2888.09
 U, KJ/KG        -3793.95
 G, KJ/KG        -30484.7
 S, KJ/(KG)(K)    13.2619

 M, (1/n)          19.100
 (dLV/dLP)t      -1.00041
 (dLV/dLT)p        1.0110
 Cp, KJ/(KG)(K)    2.2779
 GAMMAs            1.2421
 SON VEL,M/SEC     1060.8

 MOLE FRACTIONS

 *C              9.446-15
 *CH             2.086-14
 CH2             1.450-12
 CH3             1.840-10
 CH2OH           1.306-12
 CH3O            1.397-13
 CH4             1.8761-9
 CH3OH           1.753-12
 *CO             4.4054-1
 *CO2            5.9051-2
 COOH            2.1750-8
 C2H             1.629-16
 C2H2,acetylene  1.319-12
 C2H2,vinylidene 1.847-16
 CH2CO,ketene    5.112-12
 O(CH)2O         1.401-15
 CH3CO,acetyl    5.689-16
 C2H4            1.764-15
 CH3CHO,ethanal  1.625-16
 C2O             1.321-13
 C3O2            5.878-15
 *H              1.5214-3
 HCO             1.9779-7
 HCCO            6.184-14
 HO2             1.134-10
 *H2             3.0174-1
 HCHO,formaldehy 5.4677-8
 HCOOH           3.3865-8
 H2O             1.9702-1
 H2O2            1.617-10
 *O              4.1139-7
 *OH             1.2870-4
 *O2             1.1466-7

  * THERMODYNAMIC PROPERTIES FITTED TO 20000.K









         THERMODYNAMIC EQUILIBRIUM COMBUSTION PROPERTIES AT ASSIGNED

                                   PRESSURES

 CASE =                

             REACTANT                       MOLES         ENERGY      TEMP
                                                         KJ/KG-MOL      K
 FUEL        CO                           0.5000000   -110481.283    300.000
 OXIDANT     O2                           1.0000000        54.358    300.000
 FUEL        H2                           0.5000000        53.359    300.000

 O/F=    0.26643  %FUEL= 78.962375  R,EQ.RATIO= 2.000000  PHI,EQ.RATIO= 4.000000

 THERMODYNAMIC PROPERTIES

 P, BAR            1.0000
 T, K             2046.98
 RHO, KG/CU M    1.1164-1
 H, KJ/KG        -2903.68
 U, KJ/KG        -3799.44
 G, KJ/KG        -30067.3
 S, KJ/(KG)(K)    13.2701

 M, (1/n)          19.000
 (dLV/dLP)t      -1.00033
 (dLV/dLT)p        1.0090
 Cp, KJ/(KG)(K)    2.2572
 GAMMAs            1.2454
 SON VEL,M/SEC     1056.2

 MOLE FRACTIONS

 *C              5.662-15
 *CH             1.421-14
 CH2             1.221-12
 CH3             1.981-10
 CH2OH           1.237-12
 CH3O            1.272-13
 CH4             2.5175-9
 CH3OH           2.005-12
 *CO             4.4166-1
 *CO2            5.8009-2
 COOH            1.8180-8
 C2H             1.362-16
 C2H2,acetylene  1.541-12
 C2H2,vinylidene 1.819-16
 CH2CO,ketene    5.868-12
 O(CH)2O         1.402-15
 CH3CO,acetyl    6.339-16
 C2H4            2.507-15
 CH3CHO,ethanal  2.136-16
 C2O             1.069-13
 C3O2            6.130-15
 *H              1.2351-3
 HCO             1.7309-7
 HCCO            5.649-14
 HO2             6.404-11
 *H2             3.0727-1
 HCHO,formaldehy 5.5940-8
 HCOOH           3.3271-8
 H2O             1.9173-1
 H2O2            1.063-10
 *O              2.4193-7
 *OH             9.4339-5
 *O2             6.4686-8

  * THERMODYNAMIC PROPERTIES FITTED TO 20000.K



