*******************************************************************************

         NASA-GLENN CHEMICAL EQUILIBRIUM PROGRAM CEA2, FEBRUARY 5, 2004
                   BY  BONNIE MCBRIDE AND SANFORD GORDON
      REFS: NASA RP-1311, PART I, 1994 AND NASA RP-1311, PART II, 1996

 *******************************************************************************



  
 ### CEA analysis performed on Mon 11-Jul-2022 13:45:23
  
 # Problem Type: "Combustion at Assigned Volume"
  
 prob case=test___________6313 uv
  
 # Density (1 value):
 rho,kg/m**3= 1.0244
  
 # Equivalence based on Fuel/Oxid. wt ratio (Eq 9.19*) (1 value):
 phi= 3.9
  
 # You selected the following fuels and oxidizers:
 reac
 fuel CH4              mole=100.0000  t,k= 300.000
 oxid Air              mole=100.0000  t,k= 300.000
  
 # You selected these options for output:
 # short version of output
 output short
 # Proportions of any products will be expressed as Mole Fractions.
 # Heat will be expressed as siunits
 output siunits
 # Trace variable:
 output trace=1e-16
  
 # Input prepared by this script:/var/www/sites/cearun.grc.nasa.gov/cgi-bin/CEARU
 N/prepareInputFile.cgi
  
 ### IMPORTANT:  The following line is the end of your CEA input file!
 end




         THERMODYNAMIC EQUILIBRIUM COMBUSTION PROPERTIES AT ASSIGNED

                                     VOLUME

 CASE = test___________

             REACTANT                       MOLES         ENERGY      TEMP
                                                         KJ/KG-MOL      K
 FUEL        CH4                        100.0000000    -77028.260    300.000
 OXIDANT     Air                        100.0000000     -2566.042    300.000

 O/F=    4.42013  %FUEL= 18.449729  R,EQ.RATIO= 3.895590  PHI,EQ.RATIO= 3.900000

 THERMODYNAMIC PROPERTIES

 P, BAR            4.8470
 T, K             1074.07
 RHO, KG/CU M    1.0244 0
 H, KJ/KG         -484.96
 U, KJ/KG         -958.11
 G, KJ/KG        -12413.9
 S, KJ/(KG)(K)    11.1063

 M, (1/n)          18.874
 MW, MOL WT        18.546
 (dLV/dLP)t      -1.04923
 (dLV/dLT)p        1.6838
 Cp, KJ/(KG)(K)    6.2950
 GAMMAs            1.1753
 SON VEL,M/SEC      745.7

 MOLE FRACTIONS

 *Ar             4.8899-3
 CH3             5.3683-9
 CH2OH           5.644-14
 CH3O            8.128-16
 CH4             2.6194-2
 CH3OH           5.2836-9
 *CO             1.5374-1
 *CO2            1.6113-2
 COOH            9.115-13
 C2H2,acetylene  2.5150-9
 CH2CO,ketene    7.4740-9
 O(CH)2O         2.099-15
 C2H3,vinyl      9.068-15
 CH3CN           8.1160-8
 CH3CO,acetyl    2.546-13
 C2H4            4.6825-7
 C2H4O,ethylen-o 2.330-16
 CH3CHO,ethanal  1.1591-9
 CH3COOH         3.202-11
 C2H5            2.805-12
 C2H6            6.5216-7
 C2H5OH          2.243-12
 CH3OCH3         1.357-15
 C2N2            6.794-14
 C3H3,2-propynl  2.810-15
 C3H4,allene     1.195-12
 C3H4,propyne    4.197-12
 C3H5,allyl      5.784-14
 C3H6,propylene  3.139-10
 C3H6,cyclo-     1.876-13
 C3H6O,acetone   8.245-13
 C3H6O,propanal  8.032-14
 C3H7,n-propyl   2.284-16
 C3H7,i-propyl   3.430-16
 C3H8            6.081-11
 C3H8O,1propanol 2.027-16
 C3H8O,2propanol 3.719-16
 C3O2            3.541-14
 C4H6,butadiene  5.708-14
 C4H6,1butyne    4.115-16
 C4H6,2butyne    1.097-15
 C4H8,1-butene   2.754-14
 C4H8,cis2-buten 1.911-14
 C4H8,tr2-butene 2.186-14
 C4H8,isobutene  3.177-14
 C4H10,n-butane  5.580-15
 C4H10,isobutane 2.761-15
 C5H6,1,3cyclo-  5.476-16
 C6H6            4.080-14
 *H              3.7769-9
 HCN             7.2413-6
 HCO             4.672-11
 HCCO            1.470-16
 HNC             1.4240-8
 HNCO            2.2909-7
 *H2             3.4071-1
 HCHO,formaldehy 1.3726-7
 HCOOH           2.3864-8
 H2O             3.3125-2
 NCO             2.445-16
 NH2             4.064-12
 NH3             2.3131-4
 *NO             3.133-15
 *N2             4.0760-1
 *OH             1.741-12
 C(gr)           1.7399-2

  * THERMODYNAMIC PROPERTIES FITTED TO 20000.K

