*******************************************************************************

         NASA-GLENN CHEMICAL EQUILIBRIUM PROGRAM CEA2, FEBRUARY 5, 2004
                   BY  BONNIE MCBRIDE AND SANFORD GORDON
      REFS: NASA RP-1311, PART I, 1994 AND NASA RP-1311, PART II, 1996

 *******************************************************************************



  
 ### CEA analysis performed on Mon 11-Jul-2022 13:38:06
  
 # Problem Type: "Combustion at Assigned Volume"
  
 prob case=test___________5469 uv
  
 # Density (1 value):
 rho,kg/m**3= 1.0783
  
 # Equivalence based on Fuel/Oxid. wt ratio (Eq 9.19*) (1 value):
 phi= 2.2
  
 # You selected the following fuels and oxidizers:
 reac
 fuel CH4              mole=100.0000  t,k= 300.000
 oxid Air              mole=100.0000  t,k= 300.000
  
 # You selected these options for output:
 # short version of output
 output short
 # Proportions of any products will be expressed as Mole Fractions.
 # Heat will be expressed as siunits
 output siunits
 # Trace variable:
 output trace=1e-16
  
 # Input prepared by this script:/var/www/sites/cearun.grc.nasa.gov/cgi-bin/CEARU
 N/prepareInputFile.cgi
  
 ### IMPORTANT:  The following line is the end of your CEA input file!
 end




         THERMODYNAMIC EQUILIBRIUM COMBUSTION PROPERTIES AT ASSIGNED

                                     VOLUME

 CASE = test___________

             REACTANT                       MOLES         ENERGY      TEMP
                                                         KJ/KG-MOL      K
 FUEL        CH4                        100.0000000    -77028.260    300.000
 OXIDANT     Air                        100.0000000     -2566.042    300.000

 O/F=    7.83569  %FUEL= 11.317733  R,EQ.RATIO= 2.198175  PHI,EQ.RATIO= 2.200000

 THERMODYNAMIC PROPERTIES

 P, BAR            7.2671
 T, K             1786.61
 RHO, KG/CU M    1.0783 0
 H, KJ/KG          51.953
 U, KJ/KG         -621.99
 G, KJ/KG        -18764.5
 S, KJ/(KG)(K)    10.5319

 M, (1/n)          22.042
 (dLV/dLP)t      -1.00003
 (dLV/dLT)p        1.0005
 Cp, KJ/(KG)(K)    1.7078
 GAMMAs            1.2838
 SON VEL,M/SEC      930.2

 MOLE FRACTIONS

 *Ar             6.3200-3
 *CH             2.197-16
 CH2             2.527-13
 CH3             7.451-10
 CH2OH           1.899-12
 CH3O            1.382-13
 CH4             1.3910-7
 CH3OH           3.388-11
 *CN             4.241-12
 *CO             1.3640-1
 *CO2            1.9313-2
 COOH            2.8870-9
 C2H2,acetylene  1.030-11
 C2H2,vinylidene 2.618-16
 CH2CO,ketene    4.296-11
 O(CH)2O         3.879-15
 C2H3,vinyl      5.876-16
 CH3CN           2.346-13
 CH3CO,acetyl    7.239-15
 C2H4            3.955-13
 CH3CHO,ethanal  2.159-14
 CH3COOH         2.088-15
 C2H6            8.211-16
 OCCN            7.830-15
 C2N2            3.274-14
 C2O             8.409-15
 C3O2            1.033-14
 *H              5.3494-5
 HCN             1.2172-6
 HCO             3.2097-8
 HCCO            2.649-14
 HNC             3.9238-8
 HNCO            1.8756-7
 HNO             2.626-11
 HNO2            4.052-14
 HO2             1.784-13
 *H2             2.0282-1
 HCHO,formaldehy 8.5029-8
 HCOOH           4.5654-8
 H2O             1.0813-1
 H2O2            2.327-12
 *N              7.743-12
 NCO             1.852-11
 *NH             1.320-10
 NH2             1.2343-8
 NH3             1.4565-5
 NH2OH           5.297-13
 *NO             6.6472-8
 NO2             9.542-15
 *N2             5.2694-1
 N2O             8.770-12
 N2H2            5.019-13
 N2H4            1.582-15
 N3H             2.527-15
 *O              3.726-10
 *OH             2.0933-6
 *O2             8.803-11

  * THERMODYNAMIC PROPERTIES FITTED TO 20000.K
