*******************************************************************************

         NASA-GLENN CHEMICAL EQUILIBRIUM PROGRAM CEA2, FEBRUARY 5, 2004
                   BY  BONNIE MCBRIDE AND SANFORD GORDON
      REFS: NASA RP-1311, PART I, 1994 AND NASA RP-1311, PART II, 1996

 *******************************************************************************



  
 ### CEA analysis performed on Mon 11-Jul-2022 13:30:31
  
 # Problem Type: "Combustion at Assigned Volume"
  
 prob case=test___________5469 uv
  
 # Density (1 value):
 rho,kg/m**3= 1.1095
  
 # Equivalence based on Fuel/Oxid. wt ratio (Eq 9.19*) (1 value):
 phi= 1.4
  
 # You selected the following fuels and oxidizers:
 reac
 fuel CH4              mole=100.0000  t,k= 300.000
 oxid Air              mole=100.0000  t,k= 300.000
  
 # You selected these options for output:
 # short version of output
 output short
 # Proportions of any products will be expressed as Mole Fractions.
 # Heat will be expressed as siunits
 output siunits
 # Trace variable:
 output trace=1e-16
  
 # Input prepared by this script:/var/www/sites/cearun.grc.nasa.gov/cgi-bin/CEARU
 N/prepareInputFile.cgi
  
 ### IMPORTANT:  The following line is the end of your CEA input file!
 end




         THERMODYNAMIC EQUILIBRIUM COMBUSTION PROPERTIES AT ASSIGNED

                                     VOLUME

 CASE = test___________

             REACTANT                       MOLES         ENERGY      TEMP
                                                         KJ/KG-MOL      K
 FUEL        CH4                        100.0000000    -77028.260    300.000
 OXIDANT     Air                        100.0000000     -2566.042    300.000

 O/F=   12.31323  %FUEL=  7.511325  R,EQ.RATIO= 1.399392  PHI,EQ.RATIO= 1.400000

 THERMODYNAMIC PROPERTIES

 P, BAR            8.7296
 T, K             2405.71
 RHO, KG/CU M    1.1095 0
 H, KJ/KG          344.21
 U, KJ/KG         -442.59
 G, KJ/KG        -23493.9
 S, KJ/(KG)(K)     9.9089

 M, (1/n)          25.422
 (dLV/dLP)t      -1.00061
 (dLV/dLT)p        1.0156
 Cp, KJ/(KG)(K)    1.7370
 GAMMAs            1.2401
 SON VEL,M/SEC      987.8

 MOLE FRACTIONS

 *Ar             7.6022-3
 *C              3.384-14
 *CH             3.666-14
 CH2             6.296-13
 CH3             1.510-11
 CH2OH           9.999-13
 CH3O            1.494-13
 CH4             3.613-11
 CH3OH           4.038-13
 *CN             9.122-11
 *CO             7.8259-2
 *CO2            4.1031-2
 COOH            7.8408-8
 C2H2,acetylene  1.938-14
 CH2CO,ketene    2.853-13
 O(CH)2O         7.919-16
 HO(CO)2OH       1.683-16
 OCCN            1.806-14
 C2N2            1.276-15
 C2O             6.550-14
 C3O2            5.907-16
 *H              1.3314-3
 HCN             7.9964-8
 HCO             1.4825-7
 HCCO            1.589-14
 HNC             7.5706-9
 HNCO            7.0702-8
 HNO             4.0926-8
 HNO2            1.3322-9
 HNO3            5.836-15
 HO2             2.0530-8
 *H2             5.7721-2
 HCHO,formaldehy 1.6056-8
 HCOOH           4.5927-8
 H2O             1.7925-1
 H2O2            1.1842-8
 *N              3.1753-8
 NCO             9.939-10
 *NH             3.7565-8
 NH2             1.0272-7
 NH3             1.1179-6
 NH2OH           2.072-11
 *NO             1.4710-4
 NO2             3.6602-9
 NO3             2.099-16
 *N2             6.3378-1
 N2O             2.2439-8
 NCN             3.214-15
 N2H2            8.449-12
 N2H4            1.082-15
 N3              2.588-13
 N3H             3.767-13
 *O              1.1744-5
 *OH             8.4616-4
 *O2             1.5076-5
 O3              4.719-14

  * THERMODYNAMIC PROPERTIES FITTED TO 20000.K

