
 *******************************************************************************

         NASA-GLENN CHEMICAL EQUILIBRIUM PROGRAM CEA2, FEBRUARY 5, 2004
                   BY  BONNIE MCBRIDE AND SANFORD GORDON
      REFS: NASA RP-1311, PART I, 1994 AND NASA RP-1311, PART II, 1996

 *******************************************************************************



  
 ### CEA analysis performed on Thu 16-Oct-2025 08:58:42
  
 # Problem Type: "Assigned Entropy and Pressure"
  
 prob case = test___________2628 sp
  
 # Entropy (S/R) (1 value):
 s/r= 0.9031
 # Pressure (1 value):
 p,atm= 10
  
 # Equivalence based on Fuel/Oxid. wt ratio (Eq 9.19*) (16 values):
 phi = 0.5, 0.6, 0.7, 0.8, 0.9, 1, 1.1, 1.2, 1.3, 1.4, 1.5, 1.6, 1.7, 1.8, 1.9, 2
  
 # You selected the following fuels and oxidizers:
 reac
 fuel CH4              mole=100.0000
 oxid Air              mole=100.0000
  
 # You selected these options for output:
 # short version of output
 output short
 # Proportions of any products will be expressed as Mole Fractions.
 # Heat will be expressed as siunits
 output siunits
 # Trace variable:
 output trace=1e-14
  
 # Input prepared by this script:/var/www/sites/cearun/cgi-bin/CEARUN/prepareInpu
 tFile.cgi
  
 ### IMPORTANT:  The following line is the end of your CEA input file!
 end




               THERMODYNAMIC EQUILIBRIUM PROPERTIES AT ASSIGNED

                             ENTROPY AND PRESSURE

 CASE = test___________

             REACTANT                       MOLES         ENERGY      TEMP
                                                         KJ/KG-MOL      K
 FUEL        CH4                        100.0000000         0.000      0.000
 OXIDANT     Air                        100.0000000         0.000      0.000

 O/F=   34.47704  %FUEL=  2.818724  R,EQ.RATIO= 0.500760  PHI,EQ.RATIO= 0.500000

 THERMODYNAMIC PROPERTIES

 P, BAR            10.133
 T, K              811.21
 RHO, KG/CU M    4.2547 0
 H, KJ/KG         -975.53
 U, KJ/KG        -1213.67
 G, KJ/KG        -7066.76
 S, KJ/(KG)(K)     7.5088

 M, (1/n)          28.322
 (dLV/dLP)t      -1.00000
 (dLV/dLT)p        1.0000
 Cp, KJ/(KG)(K)    1.1788
 GAMMAs            1.3316
 SON VEL,M/SEC      563.1

 MOLE FRACTIONS

 *Ar             8.8990-3
 *CO2            5.0066-2
 HNO2            9.3368-9
 HNO3            6.470-10
 HO2             2.493-11
 H2O             9.9526-2
 H2O2            1.456-11
 *NO             1.6179-6
 NO2             9.7384-7
 NO3             8.297-14
 *N2             7.4198-1
 N2O             5.239-10
 *O              1.336-14
 *OH             7.708-10
 *O2             9.9524-2
 O3              1.835-14

  * THERMODYNAMIC PROPERTIES FITTED TO 20000.K









               THERMODYNAMIC EQUILIBRIUM PROPERTIES AT ASSIGNED

                             ENTROPY AND PRESSURE

 CASE = test___________

             REACTANT                       MOLES         ENERGY      TEMP
                                                         KJ/KG-MOL      K
 FUEL        CH4                        100.0000000         0.000      0.000
 OXIDANT     Air                        100.0000000         0.000      0.000

 O/F=   28.73087  %FUEL=  3.363507  R,EQ.RATIO= 0.600608  PHI,EQ.RATIO= 0.600000

 THERMODYNAMIC PROPERTIES

 P, BAR            10.133
 T, K              784.22
 RHO, KG/CU M    4.3824 0
 H, KJ/KG        -1298.97
 U, KJ/KG        -1530.18
 G, KJ/KG        -7187.52
 S, KJ/(KG)(K)     7.5088

 M, (1/n)          28.201
 (dLV/dLP)t      -1.00000
 (dLV/dLT)p        1.0000
 Cp, KJ/(KG)(K)    1.1861
 GAMMAs            1.3308
 SON VEL,M/SEC      554.7

 MOLE FRACTIONS

 *Ar             8.8113-3
 *CO2            5.9427-2
 HNO2            6.8282-9
 HNO3            5.586-10
 HO2             1.161-11
 H2O             1.1825-1
 H2O2            8.975-12
 *NO             8.9883-7
 NO2             6.4793-7
 NO3             4.038-14
 *N2             7.3467-1
 N2O             3.028-10
 *OH             3.502-10
 *O2             7.8835-2

  * THERMODYNAMIC PROPERTIES FITTED TO 20000.K









               THERMODYNAMIC EQUILIBRIUM PROPERTIES AT ASSIGNED

                             ENTROPY AND PRESSURE

 CASE = test___________

             REACTANT                       MOLES         ENERGY      TEMP
                                                         KJ/KG-MOL      K
 FUEL        CH4                        100.0000000         0.000      0.000
 OXIDANT     Air                        100.0000000         0.000      0.000

 O/F=   24.62646  %FUEL=  3.902217  R,EQ.RATIO= 0.700456  PHI,EQ.RATIO= 0.700000

 THERMODYNAMIC PROPERTIES

 P, BAR            10.133
 T, K              760.71
 RHO, KG/CU M    4.4988 0
 H, KJ/KG        -1615.58
 U, KJ/KG        -1840.81
 G, KJ/KG        -7327.59
 S, KJ/(KG)(K)     7.5088

 M, (1/n)          28.082
 (dLV/dLP)t      -1.00000
 (dLV/dLT)p        1.0000
 Cp, KJ/(KG)(K)    1.1937
 GAMMAs            1.3299
 SON VEL,M/SEC      547.3

 MOLE FRACTIONS

 *Ar             8.7253-3
 *CO2            6.8606-2
 HNO2            4.7686-9
 HNO3            4.374-10
 HO2             5.333-12
 H2O             1.3662-1
 H2O2            5.414-12
 *NO             4.9985-7
 NO2             4.0915-7
 NO3             1.832-14
 *N2             7.2750-1
 N2O             1.747-10
 *OH             1.636-10
 *O2             5.8549-2

  * THERMODYNAMIC PROPERTIES FITTED TO 20000.K









               THERMODYNAMIC EQUILIBRIUM PROPERTIES AT ASSIGNED

                             ENTROPY AND PRESSURE

 CASE = test___________

             REACTANT                       MOLES         ENERGY      TEMP
                                                         KJ/KG-MOL      K
 FUEL        CH4                        100.0000000         0.000      0.000
 OXIDANT     Air                        100.0000000         0.000      0.000

 O/F=   21.54815  %FUEL=  4.434953  R,EQ.RATIO= 0.800304  PHI,EQ.RATIO= 0.800000

 THERMODYNAMIC PROPERTIES

 P, BAR            10.133
 T, K              740.49
 RHO, KG/CU M    4.6025 0
 H, KJ/KG        -1925.54
 U, KJ/KG        -2145.70
 G, KJ/KG        -7485.79
 S, KJ/(KG)(K)     7.5088

 M, (1/n)          27.966
 (dLV/dLP)t      -1.00000
 (dLV/dLT)p        1.0000
 Cp, KJ/(KG)(K)    1.2017
 GAMMAs            1.3287
 SON VEL,M/SEC      540.9

 MOLE FRACTIONS

 *Ar             8.6410-3
 *CO2            7.7607-2
 HNO2            3.0748-9
 HNO3            2.912-10
 HO2             2.348-12
 H2O             1.5462-1
 H2O2            3.156-12
 *NO             2.7248-7
 NO2             2.3297-7
 *N2             7.2047-1
 N2O             9.849-11
 *OH             7.867-11
 *O2             3.8656-2

  * THERMODYNAMIC PROPERTIES FITTED TO 20000.K









               THERMODYNAMIC EQUILIBRIUM PROPERTIES AT ASSIGNED

                             ENTROPY AND PRESSURE

 CASE = test___________

             REACTANT                       MOLES         ENERGY      TEMP
                                                         KJ/KG-MOL      K
 FUEL        CH4                        100.0000000         0.000      0.000
 OXIDANT     Air                        100.0000000         0.000      0.000

 O/F=   19.15391  %FUEL=  4.961816  R,EQ.RATIO= 0.900152  PHI,EQ.RATIO= 0.900000

 THERMODYNAMIC PROPERTIES

 P, BAR            10.133
 T, K              723.79
 RHO, KG/CU M    4.6895 0
 H, KJ/KG        -2228.54
 U, KJ/KG        -2444.61
 G, KJ/KG        -7663.37
 S, KJ/(KG)(K)     7.5088

 M, (1/n)          27.852
 (dLV/dLP)t      -1.00000
 (dLV/dLT)p        1.0000
 Cp, KJ/(KG)(K)    1.2103
 GAMMAs            1.3274
 SON VEL,M/SEC      535.6

 MOLE FRACTIONS

 *Ar             8.5583-3
 *CO2            8.6435-2
 HNO2            1.6250-9
 HNO3            1.334-10
 HO2             8.909-13
 H2O             1.7229-1
 H2O2            1.666-12
 *NO             1.3549-7
 NO2             1.0140-7
 *N2             7.1358-1
 N2O             5.040-11
 *OH             3.825-11
 *O2             1.9143-2

  * THERMODYNAMIC PROPERTIES FITTED TO 20000.K









               THERMODYNAMIC EQUILIBRIUM PROPERTIES AT ASSIGNED

                             ENTROPY AND PRESSURE

 CASE = test___________

             REACTANT                       MOLES         ENERGY      TEMP
                                                         KJ/KG-MOL      K
 FUEL        CH4                        100.0000000         0.000      0.000
 OXIDANT     Air                        100.0000000         0.000      0.000

 O/F=   17.23852  %FUEL=  5.482900  R,EQ.RATIO= 1.000000  PHI,EQ.RATIO= 1.000000

 THERMODYNAMIC PROPERTIES

 P, BAR            10.133
 T, K              713.06
 RHO, KG/CU M    4.7409 0
 H, KJ/KG        -2521.53
 U, KJ/KG        -2735.25
 G, KJ/KG        -7875.77
 S, KJ/(KG)(K)     7.5088

 M, (1/n)          27.740
 (dLV/dLP)t      -1.00000
 (dLV/dLT)p        1.0000
 Cp, KJ/(KG)(K)    1.2204
 GAMMAs            1.3256
 SON VEL,M/SEC      532.3

 MOLE FRACTIONS

 *Ar             8.4771-3
 *CO             8.164-13
 *CO2            9.5097-2
 *H2             1.359-11
 H2O             1.8962-1
 *NO             1.933-12
 *N2             7.0681-1
 *OH             1.142-13
 *O2             6.211-12

  * THERMODYNAMIC PROPERTIES FITTED TO 20000.K









               THERMODYNAMIC EQUILIBRIUM PROPERTIES AT ASSIGNED

                             ENTROPY AND PRESSURE

 CASE = test___________

             REACTANT                       MOLES         ENERGY      TEMP
                                                         KJ/KG-MOL      K
 FUEL        CH4                        100.0000000         0.000      0.000
 OXIDANT     Air                        100.0000000         0.000      0.000

 O/F=   15.67138  %FUEL=  5.998302  R,EQ.RATIO= 1.099848  PHI,EQ.RATIO= 1.100000

 THERMODYNAMIC PROPERTIES

 P, BAR            10.133
 T, K              669.37
 RHO, KG/CU M    5.0024 0
 H, KJ/KG        -2560.92
 U, KJ/KG        -2763.47
 G, KJ/KG        -7587.08
 S, KJ/(KG)(K)     7.5088

 M, (1/n)          27.476
 (dLV/dLP)t      -1.00251
 (dLV/dLT)p        1.0420
 Cp, KJ/(KG)(K)    1.4431
 GAMMAs            1.2906
 SON VEL,M/SEC      511.3

 MOLE FRACTIONS

 *Ar             8.3508-3
 CH4             6.4909-3
 CH3OH           7.202-11
 *CO             4.4851-4
 *CO2            9.6080-2
 CH3CN           2.742-12
 C2H4            6.957-12
 CH3CHO,ethanal  4.635-13
 CH3COOH         7.457-12
 C2H6            9.8079-9
 C3H8            1.077-13
 HCN             7.497-11
 HNCO            5.998-10
 *H2             1.0745-2
 HCHO,formaldehy 3.639-11
 HCOOH           4.5549-9
 H2O             1.8154-1
 NH3             1.3379-4
 *N2             6.9621-1

  * THERMODYNAMIC PROPERTIES FITTED TO 20000.K









               THERMODYNAMIC EQUILIBRIUM PROPERTIES AT ASSIGNED

                             ENTROPY AND PRESSURE

 CASE = test___________

             REACTANT                       MOLES         ENERGY      TEMP
                                                         KJ/KG-MOL      K
 FUEL        CH4                        100.0000000         0.000      0.000
 OXIDANT     Air                        100.0000000         0.000      0.000

 O/F=   14.36544  %FUEL=  6.508114  R,EQ.RATIO= 1.199696  PHI,EQ.RATIO= 1.200000

 THERMODYNAMIC PROPERTIES

 P, BAR            10.133
 T, K              648.35
 RHO, KG/CU M    5.1459 0
 H, KJ/KG        -2593.26
 U, KJ/KG        -2790.17
 G, KJ/KG        -7461.60
 S, KJ/(KG)(K)     7.5088

 M, (1/n)          27.377
 (dLV/dLP)t      -1.00253
 (dLV/dLT)p        1.0432
 Cp, KJ/(KG)(K)    1.4594
 GAMMAs            1.2886
 SON VEL,M/SEC      503.7

 MOLE FRACTIONS

 *Ar             8.2755-3
 CH4             1.5789-2
 CH3OH           9.131-11
 *CO             3.4349-4
 *CO2            9.5213-2
 CH3CN           4.763-12
 C2H4            1.308-11
 CH3CHO,ethanal  7.752-13
 CH3COOH         1.456-11
 C2H6            4.0287-8
 C2H5OH          2.053-14
 C3H8            7.931-13
 HCN             5.487-11
 HNCO            4.730-10
 *H2             1.0291-2
 HCHO,formaldehy 2.730-11
 HCOOH           4.0667-9
 H2O             1.8001-1
 NH3             1.6918-4
 *N2             6.8991-1

  * THERMODYNAMIC PROPERTIES FITTED TO 20000.K









               THERMODYNAMIC EQUILIBRIUM PROPERTIES AT ASSIGNED

                             ENTROPY AND PRESSURE

 CASE = test___________

             REACTANT                       MOLES         ENERGY      TEMP
                                                         KJ/KG-MOL      K
 FUEL        CH4                        100.0000000         0.000      0.000
 OXIDANT     Air                        100.0000000         0.000      0.000

 O/F=   13.26040  %FUEL=  7.012425  R,EQ.RATIO= 1.299544  PHI,EQ.RATIO= 1.300000

 THERMODYNAMIC PROPERTIES

 P, BAR            10.133
 T, K              630.37
 RHO, KG/CU M    5.2757 0
 H, KJ/KG        -2623.36
 U, KJ/KG        -2815.42
 G, KJ/KG        -7356.68
 S, KJ/(KG)(K)     7.5088

 M, (1/n)          27.290
 (dLV/dLP)t      -1.00227
 (dLV/dLT)p        1.0394
 Cp, KJ/(KG)(K)    1.4486
 GAMMAs            1.2903
 SON VEL,M/SEC      497.8

 MOLE FRACTIONS

 *Ar             8.2045-3
 CH4             2.5121-2
 CH3OH           8.759-11
 *CO             2.4670-4
 *CO2            9.4199-2
 CH3CN           4.891-12
 C2H4            1.384-11
 CH3CHO,ethanal  8.036-13
 CH3COOH         1.894-11
 C2H6            7.9671-8
 C2H5OH          2.766-14
 C3H8            2.059-12
 HCN             3.328-11
 HNCO            3.345-10
 *H2             9.1039-3
 HCHO,formaldehy 1.769-11
 HCOOH           3.3655-9
 H2O             1.7895-1
 NH3             1.8451-4
 *N2             6.8399-1

  * THERMODYNAMIC PROPERTIES FITTED TO 20000.K









               THERMODYNAMIC EQUILIBRIUM PROPERTIES AT ASSIGNED

                             ENTROPY AND PRESSURE

 CASE = test___________

             REACTANT                       MOLES         ENERGY      TEMP
                                                         KJ/KG-MOL      K
 FUEL        CH4                        100.0000000         0.000      0.000
 OXIDANT     Air                        100.0000000         0.000      0.000

 O/F=   12.31323  %FUEL=  7.511325  R,EQ.RATIO= 1.399392  PHI,EQ.RATIO= 1.400000

 THERMODYNAMIC PROPERTIES

 P, BAR            10.133
 T, K              613.95
 RHO, KG/CU M    5.3999 0
 H, KJ/KG        -2651.84
 U, KJ/KG        -2839.48
 G, KJ/KG        -7261.89
 S, KJ/(KG)(K)     7.5088

 M, (1/n)          27.205
 (dLV/dLP)t      -1.00196
 (dLV/dLT)p        1.0347
 Cp, KJ/(KG)(K)    1.4314
 GAMMAs            1.2931
 SON VEL,M/SEC      492.6

 MOLE FRACTIONS

 *Ar             8.1351-3
 CH4             3.4321-2
 CH3OH           7.599-11
 *CO             1.7319-4
 *CO2            9.3159-2
 CH3CN           4.161-12
 C2H4            1.192-11
 CH3CHO,ethanal  7.018-13
 CH3COOH         2.130-11
 C2H6            1.2124-7
 C2H5OH          3.010-14
 C3H8            3.682-12
 HCN             1.888-11
 HNCO            2.276-10
 *H2             7.8288-3
 HCHO,formaldehy 1.087-11
 HCOOH           2.7104-9
 H2O             1.7799-1
 NH3             1.9076-4
 *N2             6.7820-1

  * THERMODYNAMIC PROPERTIES FITTED TO 20000.K









               THERMODYNAMIC EQUILIBRIUM PROPERTIES AT ASSIGNED

                             ENTROPY AND PRESSURE

 CASE = test___________

             REACTANT                       MOLES         ENERGY      TEMP
                                                         KJ/KG-MOL      K
 FUEL        CH4                        100.0000000         0.000      0.000
 OXIDANT     Air                        100.0000000         0.000      0.000

 O/F=   11.49235  %FUEL=  8.004900  R,EQ.RATIO= 1.499240  PHI,EQ.RATIO= 1.500000

 THERMODYNAMIC PROPERTIES

 P, BAR            10.133
 T, K              598.61
 RHO, KG/CU M    5.5211 0
 H, KJ/KG        -2679.00
 U, KJ/KG        -2862.52
 G, KJ/KG        -7173.86
 S, KJ/(KG)(K)     7.5088

 M, (1/n)          27.120
 (dLV/dLP)t      -1.00167
 (dLV/dLT)p        1.0300
 Cp, KJ/(KG)(K)    1.4131
 GAMMAs            1.2962
 SON VEL,M/SEC      487.7

 MOLE FRACTIONS

 *Ar             8.0665-3
 CH4             4.3348-2
 CH3OH           6.251-11
 *CO             1.2003-4
 *CO2            9.2130-2
 CH3CN           3.209-12
 C2H4            9.219-12
 CH3CHO,ethanal  5.603-13
 CH3COOH         2.223-11
 C2H6            1.6119-7
 C2H5OH          2.929-14
 C3H8            5.431-12
 HCN             1.032-11
 HNCO            1.516-10
 *H2             6.6305-3
 HCHO,formaldehy 6.488-12
 HCOOH           2.1506-9
 H2O             1.7703-1
 NH3             1.9175-4
 *N2             6.7248-1

  * THERMODYNAMIC PROPERTIES FITTED TO 20000.K









               THERMODYNAMIC EQUILIBRIUM PROPERTIES AT ASSIGNED

                             ENTROPY AND PRESSURE

 CASE = test___________

             REACTANT                       MOLES         ENERGY      TEMP
                                                         KJ/KG-MOL      K
 FUEL        CH4                        100.0000000         0.000      0.000
 OXIDANT     Air                        100.0000000         0.000      0.000

 O/F=   10.77408  %FUEL=  8.493235  R,EQ.RATIO= 1.599088  PHI,EQ.RATIO= 1.600000

 THERMODYNAMIC PROPERTIES

 P, BAR            10.133
 T, K              585.39
 RHO, KG/CU M    5.6276 0
 H, KJ/KG        -2705.10
 U, KJ/KG        -2885.15
 G, KJ/KG        -7100.70
 S, KJ/(KG)(K)     7.5088

 M, (1/n)          27.033
 MW, MOL WT        26.810
 (dLV/dLP)t      -1.00145
 (dLV/dLT)p        1.0260
 Cp, KJ/(KG)(K)    1.4368
 GAMMAs            1.2885
 SON VEL,M/SEC      481.7

 MOLE FRACTIONS

 *Ar             7.9319-3
 CH4             4.7581-2
 CH3OH           4.837-11
 *CO             7.8481-5
 *CO2            8.6292-2
 CH3CN           1.987-12
 C2H4            5.744-12
 CH3CHO,ethanal  3.732-13
 CH3COOH         1.960-11
 C2H6            1.6499-7
 C2H5OH          2.350-14
 C3H8            5.437-12
 HCN             5.263-12
 HNCO            9.590-11
 *H2             5.7010-3
 HCHO,formaldehy 3.731-12
 HCOOH           1.6623-9
 H2O             1.8272-1
 NH3             1.9294-4
 *N2             6.6125-1
 C(gr)           8.2541-3

  * THERMODYNAMIC PROPERTIES FITTED TO 20000.K









               THERMODYNAMIC EQUILIBRIUM PROPERTIES AT ASSIGNED

                             ENTROPY AND PRESSURE

 CASE = test___________

             REACTANT                       MOLES         ENERGY      TEMP
                                                         KJ/KG-MOL      K
 FUEL        CH4                        100.0000000         0.000      0.000
 OXIDANT     Air                        100.0000000         0.000      0.000

 O/F=   10.14031  %FUEL=  8.976413  R,EQ.RATIO= 1.698936  PHI,EQ.RATIO= 1.700000

 THERMODYNAMIC PROPERTIES

 P, BAR            10.133
 T, K              572.87
 RHO, KG/CU M    5.7320 0
 H, KJ/KG        -2730.37
 U, KJ/KG        -2907.14
 G, KJ/KG        -7031.96
 S, KJ/(KG)(K)     7.5088

 M, (1/n)          26.945
 MW, MOL WT        26.494
 (dLV/dLP)t      -1.00126
 (dLV/dLT)p        1.0228
 Cp, KJ/(KG)(K)    1.4301
 GAMMAs            1.2894
 SON VEL,M/SEC      477.4

 MOLE FRACTIONS

 *Ar             7.7972-3
 CH4             5.1363-2
 CH3OH           3.703-11
 *CO             5.1078-5
 *CO2            8.0359-2
 CH3CN           1.205-12
 C2H4            3.501-12
 CH3CHO,ethanal  2.437-13
 CH3COOH         1.693-11
 C2H6            1.6403-7
 C2H5OH          1.841-14
 C3H8            5.221-12
 HCN             2.668-12
 HNCO            6.037-11
 *H2             4.9008-3
 HCHO,formaldehy 2.134-12
 HCOOH           1.2777-9
 H2O             1.8858-1
 NH3             1.9347-4
 *N2             6.5002-1
 C(gr)           1.6738-2

  * THERMODYNAMIC PROPERTIES FITTED TO 20000.K









               THERMODYNAMIC EQUILIBRIUM PROPERTIES AT ASSIGNED

                             ENTROPY AND PRESSURE

 CASE = test___________

             REACTANT                       MOLES         ENERGY      TEMP
                                                         KJ/KG-MOL      K
 FUEL        CH4                        100.0000000         0.000      0.000
 OXIDANT     Air                        100.0000000         0.000      0.000

 O/F=    9.57696  %FUEL=  9.454515  R,EQ.RATIO= 1.798784  PHI,EQ.RATIO= 1.800000

 THERMODYNAMIC PROPERTIES

 P, BAR            10.133
 T, K              560.89
 RHO, KG/CU M    5.8355 0
 H, KJ/KG        -2754.84
 U, KJ/KG        -2928.48
 G, KJ/KG        -6966.48
 S, KJ/(KG)(K)     7.5088

 M, (1/n)          26.858
 MW, MOL WT        26.195
 (dLV/dLP)t      -1.00109
 (dLV/dLT)p        1.0200
 Cp, KJ/(KG)(K)    1.4250
 GAMMAs            1.2902
 SON VEL,M/SEC      473.3

 MOLE FRACTIONS

 *Ar             7.6685-3
 CH4             5.5125-2
 CH3OH           2.818-11
 *CO             3.3252-5
 *CO2            7.4770-2
 CH3CN           7.282-13
 C2H4            2.124-12
 CH3CHO,ethanal  1.582-13
 CH3COOH         1.453-11
 C2H6            1.6167-7
 C2H5OH          1.429-14
 C3H8            4.956-12
 HCN             1.353-12
 HNCO            3.796-11
 *H2             4.2054-3
 HCHO,formaldehy 1.218-12
 HCOOH           9.787-10
 H2O             1.9401-1
 NH3             1.9324-4
 *N2             6.3929-1
 C(gr)           2.4708-2

  * THERMODYNAMIC PROPERTIES FITTED TO 20000.K









               THERMODYNAMIC EQUILIBRIUM PROPERTIES AT ASSIGNED

                             ENTROPY AND PRESSURE

 CASE = test___________

             REACTANT                       MOLES         ENERGY      TEMP
                                                         KJ/KG-MOL      K
 FUEL        CH4                        100.0000000         0.000      0.000
 OXIDANT     Air                        100.0000000         0.000      0.000

 O/F=    9.07291  %FUEL=  9.927621  R,EQ.RATIO= 1.898632  PHI,EQ.RATIO= 1.900000

 THERMODYNAMIC PROPERTIES

 P, BAR            10.133
 T, K              549.42
 RHO, KG/CU M    5.9381 0
 H, KJ/KG        -2778.58
 U, KJ/KG        -2949.21
 G, KJ/KG        -6904.06
 S, KJ/(KG)(K)     7.5088

 M, (1/n)          26.771
 MW, MOL WT        25.909
 (dLV/dLP)t      -1.00094
 (dLV/dLT)p        1.0175
 Cp, KJ/(KG)(K)    1.4212
 GAMMAs            1.2908
 SON VEL,M/SEC      469.3

 MOLE FRACTIONS

 *Ar             7.5454-3
 CH4             5.8872-2
 CH3OH           2.133-11
 *CO             2.1652-5
 *CO2            6.9504-2
 CH3CN           4.389-13
 C2H4            1.283-12
 CH3CHO,ethanal  1.022-13
 CH3COOH         1.240-11
 C2H6            1.5818-7
 C2H5OH          1.101-14
 C3H8            4.659-12
 HCN             6.862-13
 HNCO            2.385-11
 *H2             3.6039-3
 HCHO,formaldehy 6.930-13
 HCOOH           7.473-10
 H2O             1.9904-1
 NH3             1.9236-4
 *N2             6.2903-1
 C(gr)           3.2196-2

  * THERMODYNAMIC PROPERTIES FITTED TO 20000.K









               THERMODYNAMIC EQUILIBRIUM PROPERTIES AT ASSIGNED

                             ENTROPY AND PRESSURE

 CASE = test___________

             REACTANT                       MOLES         ENERGY      TEMP
                                                         KJ/KG-MOL      K
 FUEL        CH4                        100.0000000         0.000      0.000
 OXIDANT     Air                        100.0000000         0.000      0.000

 O/F=    8.61926  %FUEL= 10.395809  R,EQ.RATIO= 1.998479  PHI,EQ.RATIO= 2.000000

 THERMODYNAMIC PROPERTIES

 P, BAR            10.133
 T, K              538.42
 RHO, KG/CU M    6.0399 0
 H, KJ/KG        -2801.61
 U, KJ/KG        -2969.37
 G, KJ/KG        -6844.52
 S, KJ/(KG)(K)     7.5088

 M, (1/n)          26.685
 MW, MOL WT        25.638
 (dLV/dLP)t      -1.00081
 (dLV/dLT)p        1.0152
 Cp, KJ/(KG)(K)    1.4184
 GAMMAs            1.2913
 SON VEL,M/SEC      465.4

 MOLE FRACTIONS

 *Ar             7.4276-3
 CH4             6.2610-2
 CH3OH           1.608-11
 *CO             1.4102-5
 *CO2            6.4542-2
 CH3CN           2.640-13
 C2H4            7.725-13
 CH3CHO,ethanal  6.572-14
 CH3COOH         1.053-11
 C2H6            1.5380-7
 C3H8            4.344-12
 HCN             3.482-13
 HNCO            1.497-11
 *H2             3.0852-3
 HCHO,formaldehy 3.937-13
 HCOOH           5.690-10
 H2O             2.0369-1
 NH3             1.9095-4
 *N2             6.1921-1
 C(gr)           3.9228-2

  * THERMODYNAMIC PROPERTIES FITTED TO 20000.K


