

         NASA-GLENN CHEMICAL EQUILIBRIUM PROGRAM CEA2, FEBRUARY 5, 2004
                   BY  BONNIE MCBRIDE AND SANFORD GORDON
      REFS: NASA RP-1311, PART I, 1994 AND NASA RP-1311, PART II, 1996

 *******************************************************************************

  
 ### CEA analysis performed on Tue 02-Aug-2022 02:28:35
  
 # Problem Type: "Rocket" (Infinite Area Combustor)
  
 prob case=test___________2919 ro equilibrium
  
 # Pressure (1 value):
 p,atm= 100
 # Supersonic Area Ratio (1 value):
 supar= 3
  
 # Equivalence based on Fuel/Oxid. wt ratio (Eq 9.19*) (26 values):
 phi= 0.5, 0.6, 0.7, 0.8, 0.9, 1, 1.1, 1.2, 1.3, 1.4, 1.5, 1.6, 1.7, 1.8, 1.9, 2,
  2.1, 2.2, 2.3, 2.4, 2.5, 2.6, 2.7, 2.8, 2.9, 3
  
 # You selected the following fuels and oxidizers:
 reac
 fuel H2(L)             wt%=100.0000
 oxid O2(L)             wt%=100.0000
  
 # You selected these options for output:
 # short version of output
 output short
 # Proportions of any products will be expressed as Mole Fractions.
 # Heat will be expressed as siunits
 output siunits
 # Trace variable:
 output trace=1e-16
  
 # Input prepared by this script:/var/www/sites/cearun.grc.nasa.gov/cgi-bin/CEARU
 N/prepareInputFile.cgi
  
 ### IMPORTANT:  The following line is the end of your CEA input file!
 end

              THEORETICAL ROCKET PERFORMANCE ASSUMING EQUILIBRIUM

           COMPOSITION DURING EXPANSION FROM INFINITE AREA COMBUSTOR

 Pin =  1469.6 PSIA
 CASE = test___________

             REACTANT                    WT FRACTION      ENERGY      TEMP
                                          (SEE NOTE)     KJ/KG-MOL      K  
 FUEL        H2(L)                        1.0000000     -9012.000     20.270
 OXIDANT     O2(L)                        1.0000000    -12979.000     90.170

 O/F=   15.87337  %FUEL=  5.926500  R,EQ.RATIO= 0.500000  PHI,EQ.RATIO= 0.500000

                 CHAMBER   THROAT     EXIT
 Pinf/P            1.0000   1.7402   14.292
 P, BAR            101.33   58.227   7.0896
 T, K             3199.40  3002.89  2289.21
 RHO, KG/CU M    8.3752 0 5.1672 0 8.4090-1
 H, KJ/KG         -646.51 -1293.53 -3360.91
 U, KJ/KG        -1856.34 -2420.39 -4204.00
 G, KJ/KG        -37752.7 -36120.6 -29910.8
 S, KJ/(KG)(K)    11.5978  11.5978  11.5978

 M, (1/n)          21.988   22.157   22.576
 (dLV/dLP)t      -1.01102 -1.00813 -1.00137
 (dLV/dLT)p        1.2276   1.1808   1.0423
 Cp, KJ/(KG)(K)    4.1141   3.8106   2.6336
 GAMMAs            1.1461   1.1483   1.1772
 SON VEL,M/SEC     1177.5   1137.6    996.3
 MACH NUMBER        0.000    1.000    2.339

 PERFORMANCE PARAMETERS

 Ae/At                      1.0000   3.0000
 CSTAR, M/SEC               1723.8   1723.8
 CF                         0.6599   1.3516
 Ivac, M/SEC                2128.2   2691.8
 Isp, M/SEC                 1137.6   2330.0

 MOLE FRACTIONS

 *H              2.6585-3 1.6904-3 9.9590-5
 HO2             6.2475-4 4.0129-4 4.7507-5
 *H2             9.0713-3 6.5356-3 8.3713-4
 H2O             5.9934-1 6.1508-1 6.5592-1
 H2O2            7.7010-5 4.5880-5 4.3426-6
 *O              1.1770-2 8.3457-3 1.0029-3
 *OH             7.2588-2 5.7359-2 1.3772-2
 *O2             3.0387-1 3.1054-1 3.2832-1
 O3              3.4966-6 1.7879-6 9.2552-8

  * THERMODYNAMIC PROPERTIES FITTED TO 20000.K

 NOTE. WEIGHT FRACTION OF FUEL IN TOTAL FUELS AND OF OXIDANT IN TOTAL OXIDANTS

              THEORETICAL ROCKET PERFORMANCE ASSUMING EQUILIBRIUM

           COMPOSITION DURING EXPANSION FROM INFINITE AREA COMBUSTOR

 Pin =  1469.6 PSIA
 CASE = test___________

             REACTANT                    WT FRACTION      ENERGY      TEMP
                                          (SEE NOTE)     KJ/KG-MOL      K  
 FUEL        H2(L)                        1.0000000     -9012.000     20.270
 OXIDANT     O2(L)                        1.0000000    -12979.000     90.170

 O/F=   13.22780  %FUEL=  7.028491  R,EQ.RATIO= 0.600000  PHI,EQ.RATIO= 0.600000

                 CHAMBER   THROAT     EXIT
 Pinf/P            1.0000   1.7345   13.910
 P, BAR            101.33   58.417   7.2844
 T, K             3363.65  3173.85  2503.23
 RHO, KG/CU M    7.4461 0 4.5919 0 7.4518-1
 H, KJ/KG         -691.31 -1416.06 -3749.14
 U, KJ/KG        -2052.09 -2688.21 -4726.67
 G, KJ/KG        -42586.0 -40946.7 -34927.1
 S, KJ/(KG)(K)    12.4551  12.4551  12.4551

 M, (1/n)          20.552   20.744   21.291
 (dLV/dLP)t      -1.01719 -1.01353 -1.00348
 (dLV/dLT)p        1.3313   1.2785   1.0949
 Cp, KJ/(KG)(K)    5.1374   4.8209   3.3929
 GAMMAs            1.1394   1.1394   1.1554
 SON VEL,M/SEC     1245.2   1204.0   1062.7
 MACH NUMBER        0.000    1.000    2.327

 PERFORMANCE PARAMETERS

 Ae/At                      1.0000   3.0000
 CSTAR, M/SEC               1832.8   1832.8
 CF                         0.6569   1.3493
 Ivac, M/SEC                2260.6   2868.3
 Isp, M/SEC                 1204.0   2473.0

 MOLE FRACTIONS

 *H              5.7812-3 4.1122-3 5.4377-4
 HO2             6.4936-4 4.3786-4 7.2885-5
 *H2             1.8412-2 1.4384-2 3.3008-3
 H2O             6.4833-1 6.6773-1 7.2505-1
 H2O2            8.6802-5 5.3979-5 6.8741-6
 *O              1.5967-2 1.2297-2 2.6763-3
 *OH             9.3041-2 7.7584-2 2.7357-2
 *O2             2.1773-1 2.2340-1 2.4100-1
 O3              2.9483-6 1.5866-6 1.1792-7

  * THERMODYNAMIC PROPERTIES FITTED TO 20000.K

 NOTE. WEIGHT FRACTION OF FUEL IN TOTAL FUELS AND OF OXIDANT IN TOTAL OXIDANTS

              THEORETICAL ROCKET PERFORMANCE ASSUMING EQUILIBRIUM

           COMPOSITION DURING EXPANSION FROM INFINITE AREA COMBUSTOR

 Pin =  1469.6 PSIA
 CASE = test___________

             REACTANT                    WT FRACTION      ENERGY      TEMP
                                          (SEE NOTE)     KJ/KG-MOL      K  
 FUEL        H2(L)                        1.0000000     -9012.000     20.270
 OXIDANT     O2(L)                        1.0000000    -12979.000     90.170

 O/F=   11.33812  %FUEL=  8.104964  R,EQ.RATIO= 0.700000  PHI,EQ.RATIO= 0.700000

                 CHAMBER   THROAT     EXIT
 Pinf/P            1.0000   1.7313   13.681
 P, BAR            101.33   58.525   7.4061
 T, K             3483.15  3297.73  2659.43
 RHO, KG/CU M    6.7444 0 4.1582 0 6.7376-1
 H, KJ/KG         -735.07 -1533.32 -4113.27
 U, KJ/KG        -2237.42 -2940.79 -5212.49
 G, KJ/KG        -46958.9 -45296.6 -39405.9
 S, KJ/(KG)(K)    13.2707  13.2707  13.2707

 M, (1/n)          19.277   19.481   20.116
 (dLV/dLP)t      -1.02399 -1.01970 -1.00667
 (dLV/dLT)p        1.4393   1.3833   1.1660
 Cp, KJ/(KG)(K)    6.2304   5.9137   4.3095
 GAMMAs            1.1356   1.1343   1.1412
 SON VEL,M/SEC     1306.2   1263.5   1120.0
 MACH NUMBER        0.000    1.000    2.321

 PERFORMANCE PARAMETERS

 Ae/At                      1.0000   3.0000
 CSTAR, M/SEC               1928.5   1928.5
 CF                         0.6552   1.3478
 Ivac, M/SEC                2377.4   3022.2
 Isp, M/SEC                 1263.5   2599.3

 MOLE FRACTIONS

 *H              1.0123-2 7.7206-3 1.6635-3
 HO2             5.9241-4 4.1086-4 8.3712-5
 *H2             3.2056-2 2.6368-2 8.6363-3
 H2O             6.8472-1 7.0725-1 7.7906-1
 H2O2            8.7069-5 5.5551-5 8.4643-6
 *O              1.8086-2 1.4635-2 4.5342-3
 *OH             1.0564-1 9.1017-2 4.0405-2
 *O2             1.4869-1 1.5254-1 1.6561-1
 O3              2.0865-6 1.1544-6 1.0586-7

  * THERMODYNAMIC PROPERTIES FITTED TO 20000.K

 NOTE. WEIGHT FRACTION OF FUEL IN TOTAL FUELS AND OF OXIDANT IN TOTAL OXIDANTS

              THEORETICAL ROCKET PERFORMANCE ASSUMING EQUILIBRIUM

           COMPOSITION DURING EXPANSION FROM INFINITE AREA COMBUSTOR

 Pin =  1469.6 PSIA
 CASE = test___________

             REACTANT                    WT FRACTION      ENERGY      TEMP
                                          (SEE NOTE)     KJ/KG-MOL      K  
 FUEL        H2(L)                        1.0000000     -9012.000     20.270
 OXIDANT     O2(L)                        1.0000000    -12979.000     90.170

 O/F=    9.92085  %FUEL=  9.156794  R,EQ.RATIO= 0.800000  PHI,EQ.RATIO= 0.800000

                 CHAMBER   THROAT     EXIT
 Pinf/P            1.0000   1.7293   13.536
 P, BAR            101.33   58.594   7.4855
 T, K             3568.12  3386.12  2773.21
 RHO, KG/CU M    6.1936 0 3.8180 0 6.1807-1
 H, KJ/KG         -777.82 -1645.75 -4457.71
 U, KJ/KG        -2413.79 -3180.42 -5668.82
 G, KJ/KG        -50907.4 -49218.4 -43419.4
 S, KJ/(KG)(K)    14.0493  14.0493  14.0493

 M, (1/n)          18.134   18.345   19.039
 (dLV/dLP)t      -1.03110 -1.02642 -1.01096
 (dLV/dLT)p        1.5491   1.4933   1.2548
 Cp, KJ/(KG)(K)    7.3993   7.1009   5.3953
 GAMMAs            1.1333   1.1311   1.1319
 SON VEL,M/SEC     1361.6   1317.5   1170.8
 MACH NUMBER        0.000    1.000    2.317

 PERFORMANCE PARAMETERS

 Ae/At                      1.0000   3.0000
 CSTAR, M/SEC               2014.3   2014.3
 CF                         0.6541   1.3468
 Ivac, M/SEC                2482.3   3159.3
 Isp, M/SEC                 1317.5   2712.9

 MOLE FRACTIONS

 *H              1.5438-2 1.2359-2 3.6848-3
 HO2             4.8416-4 3.4014-4 7.7392-5
 *H2             5.1007-2 4.3614-2 1.8302-2
 H2O             7.0981-1 7.3507-1 8.1991-1
 H2O2            7.9431-5 5.1370-5 8.6921-6
 *O              1.7910-2 1.4913-2 5.7207-3
 *OH             1.0974-1 9.6439-2 4.9390-2
 *O2             9.5534-2 9.7212-2 1.0290-1
 O3              1.2543-6 6.9852-7 7.0368-8

  * THERMODYNAMIC PROPERTIES FITTED TO 20000.K

 NOTE. WEIGHT FRACTION OF FUEL IN TOTAL FUELS AND OF OXIDANT IN TOTAL OXIDANTS

              THEORETICAL ROCKET PERFORMANCE ASSUMING EQUILIBRIUM

           COMPOSITION DURING EXPANSION FROM INFINITE AREA COMBUSTOR

 Pin =  1469.6 PSIA
 CASE = test___________

             REACTANT                    WT FRACTION      ENERGY      TEMP
                                          (SEE NOTE)     KJ/KG-MOL      K  
 FUEL        H2(L)                        1.0000000     -9012.000     20.270
 OXIDANT     O2(L)                        1.0000000    -12979.000     90.170

 O/F=    8.81854  %FUEL= 10.184817  R,EQ.RATIO= 0.900000  PHI,EQ.RATIO= 0.900000

                 CHAMBER   THROAT     EXIT
 Pinf/P            1.0000   1.7280   13.441
 P, BAR            101.33   58.636   7.5385
 T, K             3621.85  3442.56  2850.38
 RHO, KG/CU M    5.7527 0 3.5460 0 5.7373-1
 H, KJ/KG         -819.61 -1753.16 -4781.93
 U, KJ/KG        -2580.95 -3406.76 -6095.88
 G, KJ/KG        -54400.2 -52681.3 -46949.6
 S, KJ/(KG)(K)    14.7937  14.7937  14.7937

 M, (1/n)          17.097   17.310   18.037
 (dLV/dLP)t      -1.03741 -1.03269 -1.01620
 (dLV/dLT)p        1.6457   1.5947   1.3592
 Cp, KJ/(KG)(K)    8.5563   8.3077   6.6708
 GAMMAs            1.1319   1.1291   1.1255
 SON VEL,M/SEC     1412.0   1366.4   1216.1
 MACH NUMBER        0.000    1.000    2.315

 PERFORMANCE PARAMETERS

 Ae/At                      1.0000   3.0000
 CSTAR, M/SEC               2091.2   2091.2
 CF                         0.6534   1.3461
 Ivac, M/SEC                2576.6   3281.8
 Isp, M/SEC                 1366.4   2815.1

 MOLE FRACTIONS

 *H              2.1208-2 1.7593-2 6.6419-3
 HO2             3.5520-4 2.4821-4 5.6980-5
 *H2             7.6407-2 6.7614-2 3.4950-2
 H2O             7.2383-1 7.5125-1 8.4723-1
 H2O2            6.6211-5 4.2819-5 7.4536-6
 *O              1.5729-2 1.3214-2 5.5835-3
 *OH             1.0543-1 9.3419-2 5.1477-2
 *O2             5.6972-2 5.6621-2 5.4054-2
 O3              6.3543-7 3.4578-7 3.2608-8

  * THERMODYNAMIC PROPERTIES FITTED TO 20000.K

 NOTE. WEIGHT FRACTION OF FUEL IN TOTAL FUELS AND OF OXIDANT IN TOTAL OXIDANTS

              THEORETICAL ROCKET PERFORMANCE ASSUMING EQUILIBRIUM

           COMPOSITION DURING EXPANSION FROM INFINITE AREA COMBUSTOR

 Pin =  1469.6 PSIA
 CASE = test___________

             REACTANT                    WT FRACTION      ENERGY      TEMP
                                          (SEE NOTE)     KJ/KG-MOL      K  
 FUEL        H2(L)                        1.0000000     -9012.000     20.270
 OXIDANT     O2(L)                        1.0000000    -12979.000     90.170

 O/F=    7.93668  %FUEL= 11.189834  R,EQ.RATIO= 1.000000  PHI,EQ.RATIO= 1.000000

                 CHAMBER   THROAT     EXIT
 Pinf/P            1.0000   1.7277   13.403
 P, BAR            101.33   58.648   7.5598
 T, K             3644.27  3465.90  2883.48
 RHO, KG/CU M    5.3982 0 3.3274 0 5.3833-1
 H, KJ/KG         -860.46 -1855.04 -5082.49
 U, KJ/KG        -2737.49 -3617.61 -6486.79
 G, KJ/KG        -57368.3 -55597.0 -49793.5
 S, KJ/(KG)(K)    15.5059  15.5059  15.5059

 M, (1/n)          16.143   16.350   17.072
 (dLV/dLP)t      -1.04046 -1.03587 -1.01983
 (dLV/dLT)p        1.6920   1.6459   1.4309
 Cp, KJ/(KG)(K)    9.4067   9.1969   7.7293
 GAMMAs            1.1316   1.1286   1.1225
 SON VEL,M/SEC     1457.4   1410.4   1255.5
 MACH NUMBER        0.000    1.000    2.314

 PERFORMANCE PARAMETERS

 Ae/At                      1.0000   3.0000
 CSTAR, M/SEC               2159.1   2159.1
 CF                         0.6532   1.3459
 Ivac, M/SEC                2660.1   3389.1
 Isp, M/SEC                 1410.4   2905.9

 MOLE FRACTIONS

 *H              2.6551-2 2.2554-2 1.0001-2
 HO2             2.3350-4 1.5803-4 3.0386-5
 *H2             1.0897-1 9.9708-2 6.3618-2
 H2O             7.2667-1 7.5511-1 8.5689-1
 H2O2            5.0423-5 3.1971-5 4.9973-6
 *O              1.2286-2 1.0151-2 3.9577-3
 *OH             9.3940-2 8.2679-2 4.4256-2
 *O2             3.1294-2 2.9613-2 2.1241-2
 O3              2.6904-7 1.3663-7 8.7174-9

  * THERMODYNAMIC PROPERTIES FITTED TO 20000.K

 NOTE. WEIGHT FRACTION OF FUEL IN TOTAL FUELS AND OF OXIDANT IN TOTAL OXIDANTS

              THEORETICAL ROCKET PERFORMANCE ASSUMING EQUILIBRIUM

           COMPOSITION DURING EXPANSION FROM INFINITE AREA COMBUSTOR

 Pin =  1469.6 PSIA
 CASE = test___________

             REACTANT                    WT FRACTION      ENERGY      TEMP
                                          (SEE NOTE)     KJ/KG-MOL      K  
 FUEL        H2(L)                        1.0000000     -9012.000     20.270
 OXIDANT     O2(L)                        1.0000000    -12979.000     90.170

 O/F=    7.21517  %FUEL= 12.172608  R,EQ.RATIO= 1.100000  PHI,EQ.RATIO= 1.100000

                 CHAMBER   THROAT     EXIT
 Pinf/P            1.0000   1.7287   13.484
 P, BAR            101.33   58.613   7.5145
 T, K             3635.58  3454.50  2851.80
 RHO, KG/CU M    5.1142 0 3.1527 0 5.1028-1
 H, KJ/KG         -900.41 -1951.04 -5356.60
 U, KJ/KG        -2881.68 -3810.15 -6829.24
 G, KJ/KG        -59751.7 -57871.0 -51520.3
 S, KJ/(KG)(K)    16.1876  16.1876  16.1876

 M, (1/n)          15.257   15.450   16.101
 (dLV/dLP)t      -1.03812 -1.03317 -1.01512
 (dLV/dLT)p        1.6539   1.5996   1.3330
 Cp, KJ/(KG)(K)    9.5876   9.2783   7.1072
 GAMMAs            1.1330   1.1302   1.1286
 SON VEL,M/SEC     1498.2   1449.6   1289.2
 MACH NUMBER        0.000    1.000    2.316

 PERFORMANCE PARAMETERS

 Ae/At                      1.0000   3.0000
 CSTAR, M/SEC               2217.1   2217.1
 CF                         0.6538   1.3465
 Ivac, M/SEC                2732.1   3478.6
 Isp, M/SEC                 1449.6   2985.4

 MOLE FRACTIONS

 *H              3.0401-2 2.6025-2 1.1847-2
 HO2             1.3837-4 8.7659-5 1.0234-5
 *H2             1.4817-1 1.3988-1 1.0979-1
 H2O             7.1883-1 7.4653-1 8.4199-1
 H2O2            3.5253-5 2.1360-5 2.3616-6
 *O              8.5859-3 6.7519-3 1.7912-3
 *OH             7.7919-2 6.6813-2 2.9085-2
 *O2             1.5916-2 1.3888-2 5.4856-3
 O3              9.6111-8 4.2948-8 1.0562-9

  * THERMODYNAMIC PROPERTIES FITTED TO 20000.K

 NOTE. WEIGHT FRACTION OF FUEL IN TOTAL FUELS AND OF OXIDANT IN TOTAL OXIDANTS

              THEORETICAL ROCKET PERFORMANCE ASSUMING EQUILIBRIUM

           COMPOSITION DURING EXPANSION FROM INFINITE AREA COMBUSTOR

 Pin =  1469.6 PSIA
 CASE = test___________

             REACTANT                    WT FRACTION      ENERGY      TEMP
                                          (SEE NOTE)     KJ/KG-MOL      K  
 FUEL        H2(L)                        1.0000000     -9012.000     20.270
 OXIDANT     O2(L)                        1.0000000    -12979.000     90.170

 O/F=    6.61390  %FUEL= 13.133870  R,EQ.RATIO= 1.200000  PHI,EQ.RATIO= 1.200000

                 CHAMBER   THROAT     EXIT
 Pinf/P            1.0000   1.7315   13.716
 P, BAR            101.33   58.517   7.3871
 T, K             3599.02  3410.88  2753.21
 RHO, KG/CU M    4.8879 0 3.0138 0 4.8831-1
 H, KJ/KG         -939.49 -2041.06 -5601.91
 U, KJ/KG        -3012.47 -3982.69 -7114.69
 G, KJ/KG        -61548.3 -59481.6 -51967.1
 S, KJ/(KG)(K)    16.8404  16.8404  16.8404

 M, (1/n)          14.435   14.606   15.132
 (dLV/dLP)t      -1.03171 -1.02619 -1.00769
 (dLV/dLT)p        1.5496   1.4795   1.1746
 Cp, KJ/(KG)(K)    9.1216   8.5996   5.6307
 GAMMAs            1.1363   1.1347   1.1454
 SON VEL,M/SEC     1534.7   1484.3   1316.3
 MACH NUMBER        0.000    1.000    2.320

 PERFORMANCE PARAMETERS

 Ae/At                      1.0000   3.0000
 CSTAR, M/SEC               2265.0   2265.0
 CF                         0.6553   1.3482
 Ivac, M/SEC                2792.4   3549.1
 Isp, M/SEC                 1484.3   3053.7

 MOLE FRACTIONS

 *H              3.2020-2 2.7097-2 1.0484-2
 HO2             7.5284-5 4.3220-5 2.2746-6
 *H2             1.9197-1 1.8591-1 1.6895-1
 H2O             7.0206-1 7.2724-1 8.0436-1
 H2O2            2.2952-5 1.2961-5 8.0802-7
 *O              5.4541-3 3.9517-3 5.2491-4
 *OH             6.0756-2 4.9770-2 1.4671-2
 *O2             7.6344-3 5.9713-3 1.0049-3
 O3              2.994 -8 1.114 -8 6.408-11

  * THERMODYNAMIC PROPERTIES FITTED TO 20000.K

 NOTE. WEIGHT FRACTION OF FUEL IN TOTAL FUELS AND OF OXIDANT IN TOTAL OXIDANTS

              THEORETICAL ROCKET PERFORMANCE ASSUMING EQUILIBRIUM

           COMPOSITION DURING EXPANSION FROM INFINITE AREA COMBUSTOR

 Pin =  1469.6 PSIA
 CASE = test___________

             REACTANT                    WT FRACTION      ENERGY      TEMP
                                          (SEE NOTE)     KJ/KG-MOL      K  
 FUEL        H2(L)                        1.0000000     -9012.000     20.270
 OXIDANT     O2(L)                        1.0000000    -12979.000     90.170

 O/F=    6.10514  %FUEL= 14.074317  R,EQ.RATIO= 1.300000  PHI,EQ.RATIO= 1.300000

                 CHAMBER   THROAT     EXIT
 Pinf/P            1.0000   1.7358   14.033
 P, BAR            101.33   58.373   7.2206
 T, K             3540.77  3342.50  2619.82
 RHO, KG/CU M    4.7076 0 2.9036 0 4.7139-1
 H, KJ/KG         -977.71 -2125.10 -5814.86
 U, KJ/KG        -3130.07 -4135.45 -7346.63
 G, KJ/KG        -62821.4 -60505.7 -51573.0
 S, KJ/(KG)(K)    17.4662  17.4662  17.4662

 M, (1/n)          13.678   13.824   14.220
 (dLV/dLP)t      -1.02450 -1.01898 -1.00372
 (dLV/dLT)p        1.4305   1.3533   1.0871
 Cp, KJ/(KG)(K)    8.3879   7.7073   4.7608
 GAMMAs            1.1413   1.1415   1.1647
 SON VEL,M/SEC     1567.3   1514.9   1335.7
 MACH NUMBER        0.000    1.000    2.329

 PERFORMANCE PARAMETERS

 Ae/At                     1.00000   3.0000
 CSTAR, M/SEC               2303.6   2303.6
 CF                         0.6576   1.3502
 Ivac, M/SEC                2841.9   3602.8
 Isp, M/SEC                 1514.8   3110.4

 MOLE FRACTIONS

 *H              3.1378-2 2.5787-2 7.4186-3
 HO2             3.8542-5 1.9597-5 4.1279-7
 *H2             2.3763-1 2.3424-1 2.2903-1
 H2O             6.7903-1 7.0060-1 7.5692-1
 H2O2            1.4186-5 7.3348-6 2.3494-7
 *O              3.2212-3 2.0980-3 1.2037-4
 *OH             4.5162-2 3.4817-2 6.3489-3
 *O2             3.5329-3 2.4326-3 1.6157-4
 O3              8.491 -9 2.536 -9 2.856-12

  * THERMODYNAMIC PROPERTIES FITTED TO 20000.K

 NOTE. WEIGHT FRACTION OF FUEL IN TOTAL FUELS AND OF OXIDANT IN TOTAL OXIDANTS

              THEORETICAL ROCKET PERFORMANCE ASSUMING EQUILIBRIUM

           COMPOSITION DURING EXPANSION FROM INFINITE AREA COMBUSTOR

 Pin =  1469.6 PSIA
 CASE = test___________

             REACTANT                    WT FRACTION      ENERGY      TEMP
                                          (SEE NOTE)     KJ/KG-MOL      K  
 FUEL        H2(L)                        1.0000000     -9012.000     20.270
 OXIDANT     O2(L)                        1.0000000    -12979.000     90.170

 O/F=    5.66906  %FUEL= 14.994619  R,EQ.RATIO= 1.400000  PHI,EQ.RATIO= 1.400000

                 CHAMBER   THROAT     EXIT
 Pinf/P            1.0000   1.7410   14.369
 P, BAR            101.33   58.199   7.0515
 T, K             3467.70  3258.12  2478.33
 RHO, KG/CU M    4.5633 0 2.8158 0 4.5840-1
 H, KJ/KG        -1015.12 -2203.28 -5996.49
 U, KJ/KG        -3235.56 -4270.14 -7534.79
 G, KJ/KG        -63664.9 -61066.7 -50771.6
 S, KJ/(KG)(K)    18.0667  18.0667  18.0667

 M, (1/n)          12.985   13.107   13.395
 (dLV/dLP)t      -1.01837 -1.01339 -1.00184
 (dLV/dLT)p        1.3279   1.2538   1.0444
 Cp, KJ/(KG)(K)    7.6829   6.9438   4.3402
 GAMMAs            1.1476   1.1497   1.1823
 SON VEL,M/SEC     1596.3   1541.5   1348.6
 MACH NUMBER        0.000    1.000    2.341

 PERFORMANCE PARAMETERS

 Ae/At                      1.0000   3.0000
 CSTAR, M/SEC               2334.3   2334.3
 CF                         0.6604   1.3522
 Ivac, M/SEC                2882.3   3643.7
 Isp, M/SEC                 1541.5   3156.4

 MOLE FRACTIONS

 *H              2.9014-2 2.2851-2 4.5889-3
 HO2             1.8970-5 8.4302-6 6.9426-8
 *H2             2.8273-1 2.8176-1 2.8374-1
 H2O             6.5238-1 6.7006-1 7.0907-1
 H2O2            8.4716-6 3.9687-6 6.4177-8
 *O              1.8067-3 1.0413-3 2.4614-5
 *OH             3.2439-2 2.3310-2 2.5545-3
 *O2             1.6058-3 9.6436-4 2.5269-5
 O3              2.275 -9 5.344-10 1.155-13

  * THERMODYNAMIC PROPERTIES FITTED TO 20000.K

 NOTE. WEIGHT FRACTION OF FUEL IN TOTAL FUELS AND OF OXIDANT IN TOTAL OXIDANTS

              THEORETICAL ROCKET PERFORMANCE ASSUMING EQUILIBRIUM

           COMPOSITION DURING EXPANSION FROM INFINITE AREA COMBUSTOR

 Pin =  1469.6 PSIA
 CASE = test___________

             REACTANT                    WT FRACTION      ENERGY      TEMP
                                          (SEE NOTE)     KJ/KG-MOL      K  
 FUEL        H2(L)                        1.0000000     -9012.000     20.270
 OXIDANT     O2(L)                        1.0000000    -12979.000     90.170

 O/F=    5.29112  %FUEL= 15.895416  R,EQ.RATIO= 1.500000  PHI,EQ.RATIO= 1.500000

                 CHAMBER   THROAT     EXIT
 Pinf/P            1.0000   1.7466   14.697
 P, BAR            101.33   58.011   6.8943
 T, K             3385.51  3164.85  2340.90
 RHO, KG/CU M    4.4468 0 2.7454 0 4.4841-1
 H, KJ/KG        -1051.74 -2275.92 -6150.68
 U, KJ/KG        -3330.33 -4388.93 -7688.18
 G, KJ/KG        -64170.0 -61280.3 -49793.6
 S, KJ/(KG)(K)    18.6436  18.6436  18.6436

 M, (1/n)          12.354   12.453   12.659
 (dLV/dLP)t      -1.01369 -1.00942 -1.00091
 (dLV/dLT)p        1.2483   1.1820   1.0229
 Cp, KJ/(KG)(K)    7.1062   6.3713   4.1467
 GAMMAs            1.1546   1.1587   1.1973
 SON VEL,M/SEC     1622.0   1564.7   1356.8
 MACH NUMBER        0.000    1.000    2.354

 PERFORMANCE PARAMETERS

 Ae/At                      1.0000   3.0000
 CSTAR, M/SEC               2358.7   2358.7
 CF                         0.6634   1.3539
 Ivac, M/SEC                2915.1   3674.9
 Isp, M/SEC                 1564.7   3193.4

 MOLE FRACTIONS

 *H              2.5644-2 1.9181-2 2.6197-3
 HO2             9.1099-6 3.5110-6 1.1336-8
 *H2             3.2570-1 3.2656-1 3.3193-1
 H2O             6.2420-1 6.3824-1 6.6445-1
 H2O2            4.9488-6 2.0884-6 1.7121-8
 *O              9.7743-4 4.9354-4 4.7472-6
 *OH             2.2747-2 1.5145-2 9.9035-4
 *O2             7.2457-4 3.7765-4 3.9514-6
 O3              5.904-10 1.078-10 4.549-15

  * THERMODYNAMIC PROPERTIES FITTED TO 20000.K

 NOTE. WEIGHT FRACTION OF FUEL IN TOTAL FUELS AND OF OXIDANT IN TOTAL OXIDANTS

              THEORETICAL ROCKET PERFORMANCE ASSUMING EQUILIBRIUM

           COMPOSITION DURING EXPANSION FROM INFINITE AREA COMBUSTOR

 Pin =  1469.6 PSIA
 CASE = test___________

             REACTANT                    WT FRACTION      ENERGY      TEMP
                                          (SEE NOTE)     KJ/KG-MOL      K  
 FUEL        H2(L)                        1.0000000     -9012.000     20.270
 OXIDANT     O2(L)                        1.0000000    -12979.000     90.170

 O/F=    4.96043  %FUEL= 16.777322  R,EQ.RATIO= 1.600000  PHI,EQ.RATIO= 1.600000

                 CHAMBER   THROAT     EXIT
 Pinf/P            1.0000   1.7524   15.005
 P, BAR            101.33   57.820   6.7526
 T, K             3298.35  3067.54  2212.32
 RHO, KG/CU M    4.3523 0 2.6887 0 4.4070-1
 H, KJ/KG        -1087.59 -2343.43 -6281.61
 U, KJ/KG        -3415.68 -4493.89 -7813.88
 G, KJ/KG        -64411.5 -61236.1 -48755.2
 S, KJ/(KG)(K)    19.1987  19.1987  19.1987

 M, (1/n)          11.780   11.860   12.005
 (dLV/dLP)t      -1.01020 -1.00664 -1.00045
 (dLV/dLT)p        1.1883   1.1308   1.0118
 Cp, KJ/(KG)(K)    6.6597   5.9577   4.0736
 GAMMAs            1.1620   1.1680   1.2101
 SON VEL,M/SEC     1644.8   1584.8   1361.7
 MACH NUMBER        0.000    1.000    2.367

 PERFORMANCE PARAMETERS

 Ae/At                      1.0000   3.0000
 CSTAR, M/SEC               2377.9   2377.9
 CF                         0.6665   1.3554
 Ivac, M/SEC                2941.7   3698.5
 Isp, M/SEC                 1584.8   3223.0

 MOLE FRACTIONS

 *H              2.1887-2 1.5451-2 1.4233-3
 HO2             4.3064-6 1.4320-6 1.8330-9
 *H2             3.6571-1 3.6777-1 3.7414-1
 H2O             5.9587-1 6.0677-1 6.2406-1
 H2O2            2.8502-6 1.0795-6 4.5367-9
 *O              5.1530-4 2.2637-4 8.8755-7
 *OH             1.5680-2 9.6332-3 3.7653-4
 *O2             3.2626-4 1.4707-4 6.2322-7
 O3              1.504-10 2.122-11 1.791-16

  * THERMODYNAMIC PROPERTIES FITTED TO 20000.K

 NOTE. WEIGHT FRACTION OF FUEL IN TOTAL FUELS AND OF OXIDANT IN TOTAL OXIDANTS

              THEORETICAL ROCKET PERFORMANCE ASSUMING EQUILIBRIUM

           COMPOSITION DURING EXPANSION FROM INFINITE AREA COMBUSTOR

 Pin =  1469.6 PSIA
 CASE = test___________

             REACTANT                    WT FRACTION      ENERGY      TEMP
                                          (SEE NOTE)     KJ/KG-MOL      K  
 FUEL        H2(L)                        1.0000000     -9012.000     20.270
 OXIDANT     O2(L)                        1.0000000    -12979.000     90.170

 O/F=    4.66864  %FUEL= 17.640925  R,EQ.RATIO= 1.700000  PHI,EQ.RATIO= 1.700000

                 CHAMBER   THROAT     EXIT
 Pinf/P            1.0000   1.7582   15.289
 P, BAR            101.33   57.630   6.6271
 T, K             3209.03  2969.34  2094.07
 RHO, KG/CU M    4.2752 0 2.6429 0 4.3476-1
 H, KJ/KG        -1122.69 -2406.22 -6392.89
 U, KJ/KG        -3492.75 -4586.79 -7917.21
 G, KJ/KG        -64446.7 -61000.4 -47715.3
 S, KJ/(KG)(K)    19.7331  19.7331  19.7331

 M, (1/n)          11.258   11.322   11.422
 (dLV/dLP)t      -1.00762 -1.00468 -1.00022
 (dLV/dLT)p        1.1431   1.0942   1.0061
 Cp, KJ/(KG)(K)    6.3202   5.6630   4.0662
 GAMMAs            1.1697   1.1773   1.2210
 SON VEL,M/SEC     1665.0   1602.2   1364.2
 MACH NUMBER        0.000    1.000    2.380

 PERFORMANCE PARAMETERS

 Ae/At                      1.0000   3.0000
 CSTAR, M/SEC               2392.9   2392.9
 CF                         0.6696   1.3568
 Ivac, M/SEC                2963.2   3716.1
 Isp, M/SEC                 1602.2   3246.6

 MOLE FRACTIONS

 *H              1.8174-2 1.2058-2 7.4936-4
 HO2             2.014 -6 5.756 -7 2.966-10
 *H2             4.0247-1 4.0518-1 4.1128-1
 H2O             5.6827-1 5.7657-1 5.8783-1
 H2O2            1.6260-6 5.5137-7 1.2045-9
 *O              2.6640-4 1.0129-4 1.6338-7
 *OH             1.0671-2 6.0318-3 1.4178-4
 *O2             1.4689-4 5.7108-5 9.9533-8
 O3              3.791-11 4.108-12 7.146-18

  * THERMODYNAMIC PROPERTIES FITTED TO 20000.K

 NOTE. WEIGHT FRACTION OF FUEL IN TOTAL FUELS AND OF OXIDANT IN TOTAL OXIDANTS

              THEORETICAL ROCKET PERFORMANCE ASSUMING EQUILIBRIUM

           COMPOSITION DURING EXPANSION FROM INFINITE AREA COMBUSTOR

 Pin =  1469.6 PSIA
 CASE = test___________

             REACTANT                    WT FRACTION      ENERGY      TEMP
                                          (SEE NOTE)     KJ/KG-MOL      K  
 FUEL        H2(L)                        1.0000000     -9012.000     20.270
 OXIDANT     O2(L)                        1.0000000    -12979.000     90.170

 O/F=    4.40927  %FUEL= 18.486789  R,EQ.RATIO= 1.800000  PHI,EQ.RATIO= 1.800000

                 CHAMBER   THROAT     EXIT
 Pinf/P            1.0000   1.7639   15.549
 P, BAR            101.33   57.445   6.5164
 T, K             3119.43  2872.25  1986.07
 RHO, KG/CU M    4.2124 0 2.6059 0 4.3021-1
 H, KJ/KG        -1157.08 -2464.72 -6487.63
 U, KJ/KG        -3562.50 -4669.16 -8002.32
 G, KJ/KG        -64319.7 -60622.5 -46701.9
 S, KJ/(KG)(K)    20.2481  20.2481  20.2481

 M, (1/n)          10.783   10.833   10.902
 (dLV/dLP)t      -1.00569 -1.00329 -1.00011
 (dLV/dLT)p        1.1089   1.0678   1.0031
 Cp, KJ/(KG)(K)    6.0644   5.4565   4.0946
 GAMMAs            1.1774   1.1864   1.2305
 SON VEL,M/SEC     1682.9   1617.2   1365.2
 MACH NUMBER        0.000    1.000    2.392

 PERFORMANCE PARAMETERS

 Ae/At                      1.0000   3.0000
 CSTAR, M/SEC               2404.4   2404.4
 CF                         0.6726   1.3580
 Ivac, M/SEC                2980.3   3729.0
 Isp, M/SEC                 1617.2   3265.1

 MOLE FRACTIONS

 *H              1.4764-2 9.1792-3 3.8646-4
 HO2             9.344 -7 2.289 -7 4.826-11
 *H2             4.3596-1 4.3891-1 4.4418-1
 H2O             5.4188-1 5.4811-1 5.5538-1
 H2O2            9.214 -7 2.793 -7 3.217-10
 *O              1.3561-4 4.4448-5 2.9859-8
 *OH             7.1904-3 3.7318-3 5.3151-5
 *O2             6.6168-5 2.2134-5 1.6112-8
 O3              9.489-12 7.867-13 2.902-19

  * THERMODYNAMIC PROPERTIES FITTED TO 20000.K

 NOTE. WEIGHT FRACTION OF FUEL IN TOTAL FUELS AND OF OXIDANT IN TOTAL OXIDANTS

              THEORETICAL ROCKET PERFORMANCE ASSUMING EQUILIBRIUM

           COMPOSITION DURING EXPANSION FROM INFINITE AREA COMBUSTOR

 Pin =  1469.6 PSIA
 CASE = test___________

             REACTANT                    WT FRACTION      ENERGY      TEMP
                                          (SEE NOTE)     KJ/KG-MOL      K  
 FUEL        H2(L)                        1.0000000     -9012.000     20.270
 OXIDANT     O2(L)                        1.0000000    -12979.000     90.170

 O/F=    4.17720  %FUEL= 19.315455  R,EQ.RATIO= 1.900000  PHI,EQ.RATIO= 1.900000

                 CHAMBER   THROAT     EXIT
 Pinf/P            1.0000   1.7693   15.786
 P, BAR            101.33   57.269   6.4185
 T, K             3030.81  2777.61  1887.57
 RHO, KG/CU M    4.1612 0 2.5761 0 4.2678-1
 H, KJ/KG        -1190.76 -2519.17 -6568.53
 U, KJ/KG        -3625.75 -4742.22 -8072.46
 G, KJ/KG        -64064.7 -60140.5 -45726.1
 S, KJ/(KG)(K)    20.7449  20.7449  20.7449

 M, (1/n)          10.349   10.389   10.435
 (dLV/dLP)t      -1.00425 -1.00231 -1.00005
 (dLV/dLT)p        1.0829   1.0488   1.0016
 Cp, KJ/(KG)(K)    5.8740   5.3168   4.1420
 GAMMAs            1.1851   1.1951   1.2390
 SON VEL,M/SEC     1698.7   1630.0   1365.1
 MACH NUMBER        0.000    1.000    2.402

 PERFORMANCE PARAMETERS

 Ae/At                      1.0000   3.0000
 CSTAR, M/SEC               2413.0   2413.0
 CF                         0.6755   1.3591
 Ivac, M/SEC                2993.8   3738.1
 Isp, M/SEC                 1630.0   3279.6

 MOLE FRACTIONS

 *H              1.1783-2 6.8526-3 1.9644-4
 HO2             4.309 -7 9.034 -8 7.906-12
 *H2             4.6635-1 4.6926-1 4.7354-1
 H2O             5.1696-1 5.2157-1 5.2624-1
 H2O2            5.196 -7 1.407 -7 8.651-11
 *O              6.8155-5 1.9211-5 5.4385-9
 *OH             4.8072-3 2.2877-3 1.9887-5
 *O2             2.9819-5 8.5707-6 2.6408-9
 O3              2.363-12 1.496-13 1.199-20

  * THERMODYNAMIC PROPERTIES FITTED TO 20000.K

 NOTE. WEIGHT FRACTION OF FUEL IN TOTAL FUELS AND OF OXIDANT IN TOTAL OXIDANTS

              THEORETICAL ROCKET PERFORMANCE ASSUMING EQUILIBRIUM

           COMPOSITION DURING EXPANSION FROM INFINITE AREA COMBUSTOR

 Pin =  1469.6 PSIA
 CASE = test___________

             REACTANT                    WT FRACTION      ENERGY      TEMP
                                          (SEE NOTE)     KJ/KG-MOL      K  
 FUEL        H2(L)                        1.0000000     -9012.000     20.270
 OXIDANT     O2(L)                        1.0000000    -12979.000     90.170

 O/F=    3.96834  %FUEL= 20.127441  R,EQ.RATIO= 2.000000  PHI,EQ.RATIO= 2.000000

                 CHAMBER   THROAT     EXIT
 Pinf/P            1.0000   1.7744   16.004
 P, BAR            101.33   57.104   6.3313
 T, K             2944.04  2686.24  1797.61
 RHO, KG/CU M    4.1198 0 2.5525 0 4.2424-1
 H, KJ/KG        -1223.77 -2569.91 -6637.82
 U, KJ/KG        -3683.23 -4807.14 -8130.20
 G, KJ/KG        -63709.3 -59583.7 -44791.1
 S, KJ/(KG)(K)    21.2244  21.2244  21.2244

 M, (1/n)           9.953    9.983   10.015
 (dLV/dLP)t      -1.00316 -1.00162 -1.00003
 (dLV/dLT)p        1.0631   1.0350   1.0008
 Cp, KJ/(KG)(K)    5.7355   5.2282   4.1988
 GAMMAs            1.1925   1.2034   1.2469
 SON VEL,M/SEC     1712.6   1640.8   1364.1
 MACH NUMBER        0.000    1.000    2.412

 PERFORMANCE PARAMETERS

 Ae/At                      1.0000   3.0000
 CSTAR, M/SEC               2419.3   2419.3
 CF                         0.6782   1.3601
 Ivac, M/SEC                3004.3   3744.1
 Isp, M/SEC                 1640.8   3290.6

 MOLE FRACTIONS

 *H              9.2684-3 5.0372-3 9.8761-5
 HO2             1.978 -7 3.546 -8 1.303-12
 *H2             4.9388-1 4.9658-1 4.9993-1
 H2O             4.9361-1 4.9698-1 4.9997-1
 H2O2            2.920 -7 7.060 -8 2.341-11
 *O              3.390 -5 8.206 -6 9.882-10
 *OH             3.1935-3 1.3928-3 7.4316-6
 *O2             1.344 -5 3.318 -6 4.372-10
 O3              5.867-13 2.835-14 5.026-22

  * THERMODYNAMIC PROPERTIES FITTED TO 20000.K

 NOTE. WEIGHT FRACTION OF FUEL IN TOTAL FUELS AND OF OXIDANT IN TOTAL OXIDANTS

              THEORETICAL ROCKET PERFORMANCE ASSUMING EQUILIBRIUM

           COMPOSITION DURING EXPANSION FROM INFINITE AREA COMBUSTOR

 Pin =  1469.6 PSIA
 CASE = test___________

             REACTANT                    WT FRACTION      ENERGY      TEMP
                                          (SEE NOTE)     KJ/KG-MOL      K  
 FUEL        H2(L)                        1.0000000     -9012.000     20.270
 OXIDANT     O2(L)                        1.0000000    -12979.000     90.170

 O/F=    3.77937  %FUEL= 20.923248  R,EQ.RATIO= 2.100000  PHI,EQ.RATIO= 2.100000

                 CHAMBER   THROAT     EXIT
 Pinf/P            1.0000   1.7791   16.205
 P, BAR            101.33   56.951   6.2528
 T, K             2859.69  2598.64  1715.21
 RHO, KG/CU M    4.0866 0 2.5338 0 4.2242-1
 H, KJ/KG        -1256.12 -2617.26 -6697.37
 U, KJ/KG        -3735.58 -4864.91 -8177.60
 G, KJ/KG        -63275.7 -58975.2 -43896.0
 S, KJ/(KG)(K)    21.6875  21.6875  21.6875

 M, (1/n)           9.590    9.613    9.634
 (dLV/dLP)t      -1.00235 -1.00113 -1.00001
 (dLV/dLT)p        1.0479   1.0251   1.0004
 Cp, KJ/(KG)(K)    5.6387   5.1790   4.2600
 GAMMAs            1.1998   1.2112   1.2543
 SON VEL,M/SEC     1724.8   1649.9   1362.6
 MACH NUMBER        0.000    1.000    2.421

 PERFORMANCE PARAMETERS

 Ae/At                      1.0000   3.0000
 CSTAR, M/SEC               2423.7   2423.7
 CF                         0.6808   1.3611
 Ivac, M/SEC                3012.2   3747.6
 Isp, M/SEC                 1649.9   3298.9

 MOLE FRACTIONS

 *H              7.2040-3 3.6580-3 4.9204-5
 HO2             9.043 -8 1.387 -8 2.155-13
 *H2             5.1884-1 5.2123-1 5.2377-1
 H2O             4.7182-1 4.7427-1 4.7618-1
 H2O2            1.637 -7 3.537 -8 6.368-12
 *O              1.671 -5 3.474 -6 1.790-10
 *OH             2.1108-3 8.4362-4 2.7732-6
 *O2             6.065 -6 1.286 -6 7.292-11
 O3              1.454-13 5.366-15 2.127-23

  * THERMODYNAMIC PROPERTIES FITTED TO 20000.K

 NOTE. WEIGHT FRACTION OF FUEL IN TOTAL FUELS AND OF OXIDANT IN TOTAL OXIDANTS

              THEORETICAL ROCKET PERFORMANCE ASSUMING EQUILIBRIUM

           COMPOSITION DURING EXPANSION FROM INFINITE AREA COMBUSTOR

 Pin =  1469.6 PSIA
 CASE = test___________

             REACTANT                    WT FRACTION      ENERGY      TEMP
                                          (SEE NOTE)     KJ/KG-MOL      K  
 FUEL        H2(L)                        1.0000000     -9012.000     20.270
 OXIDANT     O2(L)                        1.0000000    -12979.000     90.170

 O/F=    3.60758  %FUEL= 21.703353  R,EQ.RATIO= 2.200000  PHI,EQ.RATIO= 2.200000

                 CHAMBER   THROAT     EXIT
 Pinf/P            1.0000   1.7836   16.391
 P, BAR            101.33   56.811   6.1818
 T, K             2778.15  2515.07  1639.51
 RHO, KG/CU M    4.0602 0 2.5194 0 4.2121-1
 H, KJ/KG        -1287.83 -2661.52 -6748.60
 U, KJ/KG        -3783.39 -4916.44 -8216.23
 G, KJ/KG        -62782.0 -58332.4 -43039.0
 S, KJ/(KG)(K)    22.1349  22.1349  22.1349

 M, (1/n)           9.256    9.274    9.288
 (dLV/dLP)t      -1.00174 -1.00079 -1.00001
 (dLV/dLT)p        1.0364   1.0179   1.0002
 Cp, KJ/(KG)(K)    5.5757   5.1600   4.3226
 GAMMAs            1.2067   1.2184   1.2613
 SON VEL,M/SEC     1735.3   1657.5   1360.6
 MACH NUMBER        0.000    1.000    2.429

 PERFORMANCE PARAMETERS

 Ae/At                      1.0000   3.0000
 CSTAR, M/SEC               2426.4   2426.4
 CF                         0.6831   1.3620
 Ivac, M/SEC                3017.9   3748.9
 Isp, M/SEC                 1657.5   3304.8

 MOLE FRACTIONS

 *H              5.5448-3 2.6312-3 2.4323-5
 HO2             4.125 -8 5.421 -9 3.574-14
 *H2             5.4149-1 5.4354-1 5.4544-1
 H2O             4.5156-1 4.5332-1 4.5454-1
 H2O2            9.165 -8 1.772 -8 1.738-12
 *O              8.181 -6 1.462 -6 3.233-11
 *OH             1.3895-3 5.0919-4 1.0330-6
 *O2             2.738 -6 4.992 -7 1.222-11
 O3              3.599-14 1.017-15 9.054-25

  * THERMODYNAMIC PROPERTIES FITTED TO 20000.K

 NOTE. WEIGHT FRACTION OF FUEL IN TOTAL FUELS AND OF OXIDANT IN TOTAL OXIDANTS

              THEORETICAL ROCKET PERFORMANCE ASSUMING EQUILIBRIUM

           COMPOSITION DURING EXPANSION FROM INFINITE AREA COMBUSTOR

 Pin =  1469.6 PSIA
 CASE = test___________

             REACTANT                    WT FRACTION      ENERGY      TEMP
                                          (SEE NOTE)     KJ/KG-MOL      K  
 FUEL        H2(L)                        1.0000000     -9012.000     20.270
 OXIDANT     O2(L)                        1.0000000    -12979.000     90.170

 O/F=    3.45073  %FUEL= 22.468216  R,EQ.RATIO= 2.300000  PHI,EQ.RATIO= 2.300000

                 CHAMBER   THROAT     EXIT
 Pinf/P            1.0000   1.7876   16.567
 P, BAR            101.33   56.681   6.1161
 T, K             2699.65  2435.60  1569.67
 RHO, KG/CU M    4.0397 0 2.5085 0 4.2046-1
 H, KJ/KG        -1318.92 -2702.97 -6792.92
 U, KJ/KG        -3827.15 -4962.52 -8247.55
 G, KJ/KG        -62243.4 -57668.6 -42216.5
 S, KJ/(KG)(K)    22.5676  22.5676  22.5676

 M, (1/n)           8.949    8.962    8.972
 (dLV/dLP)t      -1.00129 -1.00055 -1.00000
 (dLV/dLT)p        1.0275   1.0128   1.0001
 Cp, KJ/(KG)(K)    5.5400   5.1641   4.3853
 GAMMAs            1.2133   1.2251   1.2680
 SON VEL,M/SEC     1744.5   1663.8   1358.1
 MACH NUMBER        0.000    1.000    2.436

 PERFORMANCE PARAMETERS

 Ae/At                      1.0000   3.0000
 CSTAR, M/SEC               2427.8   2427.8
 CF                         0.6853   1.3629
 Ivac, M/SEC                3021.9   3748.4
 Isp, M/SEC                 1663.8   3308.8

 MOLE FRACTIONS

 *H              4.2335-3 1.8785-3 1.1931-5
 HO2             1.878 -8 2.118 -9 5.920-15
 *H2             5.6211-1 5.6381-1 5.6521-1
 H2O             4.3274-1 4.3400-1 4.3478-1
 H2O2            5.127 -8 8.881 -9 4.749-13
 *O              3.983 -6 6.122 -7 5.803-12
 *OH             9.1189-4 3.0663-4 3.8364-7
 *O2             1.238 -6 1.943 -7 2.051-12
 O3              8.916-15 1.934-16 3.854-26

  * THERMODYNAMIC PROPERTIES FITTED TO 20000.K

 NOTE. WEIGHT FRACTION OF FUEL IN TOTAL FUELS AND OF OXIDANT IN TOTAL OXIDANTS

              THEORETICAL ROCKET PERFORMANCE ASSUMING EQUILIBRIUM

           COMPOSITION DURING EXPANSION FROM INFINITE AREA COMBUSTOR

 Pin =  1469.6 PSIA
 CASE = test___________

             REACTANT                    WT FRACTION      ENERGY      TEMP
                                          (SEE NOTE)     KJ/KG-MOL      K  
 FUEL        H2(L)                        1.0000000     -9012.000     20.270
 OXIDANT     O2(L)                        1.0000000    -12979.000     90.170

 O/F=    3.30695  %FUEL= 23.218281  R,EQ.RATIO= 2.400000  PHI,EQ.RATIO= 2.400000

                 CHAMBER   THROAT     EXIT
 Pinf/P            1.0000   1.7914   16.734
 P, BAR            101.33   56.562   6.0550
 T, K             2624.30  2360.20  1505.05
 RHO, KG/CU M    4.0241 0 2.5006 0 4.2011-1
 H, KJ/KG        -1349.41 -2741.92 -6831.27
 U, KJ/KG        -3867.35 -5003.86 -8272.57
 G, KJ/KG        -61671.7 -56993.6 -41426.3
 S, KJ/(KG)(K)    22.9860  22.9860  22.9860

 M, (1/n)           8.666    8.676    8.682
 (dLV/dLP)t      -1.00095 -1.00038 -1.00000
 (dLV/dLT)p        1.0208   1.0091   1.0001
 Cp, KJ/(KG)(K)    5.5263   5.1854   4.4472
 GAMMAs            1.2195   1.2313   1.2745
 SON VEL,M/SEC     1752.3   1668.8   1355.3
 MACH NUMBER        0.000    1.000    2.443

 PERFORMANCE PARAMETERS

 Ae/At                      1.0000   3.0000
 CSTAR, M/SEC               2428.0   2428.0
 CF                         0.6873   1.3637
 Ivac, M/SEC                3024.2   3746.4
 Isp, M/SEC                 1668.8   3311.2

 MOLE FRACTIONS

 *H              3.2112-3 1.3332-3 5.8108-6
 HO2             8.547 -9 8.284-10 9.783-16
 *H2             5.8092-1 5.8232-1 5.8333-1
 H2O             4.1527-1 4.1617-1 4.1667-1
 H2O2            2.869 -8 4.459 -9 1.298-13
 *O              1.931 -6 2.557 -7 1.035-12
 *OH             5.9708-4 1.8439-4 1.4198-7
 *O2             5.604 -7 7.585 -8 3.440-13
 O3              2.212-15 3.695-17 1.635-27

  * THERMODYNAMIC PROPERTIES FITTED TO 20000.K

 NOTE. WEIGHT FRACTION OF FUEL IN TOTAL FUELS AND OF OXIDANT IN TOTAL OXIDANTS

              THEORETICAL ROCKET PERFORMANCE ASSUMING EQUILIBRIUM

           COMPOSITION DURING EXPANSION FROM INFINITE AREA COMBUSTOR

 Pin =  1469.6 PSIA
 CASE = test___________

             REACTANT                    WT FRACTION      ENERGY      TEMP
                                          (SEE NOTE)     KJ/KG-MOL      K  
 FUEL        H2(L)                        1.0000000     -9012.000     20.270
 OXIDANT     O2(L)                        1.0000000    -12979.000     90.170

 O/F=    3.17467  %FUEL= 23.953971  R,EQ.RATIO= 2.500000  PHI,EQ.RATIO= 2.500000

                 CHAMBER   THROAT     EXIT
 Pinf/P            1.0000   1.7949   16.894
 P, BAR            101.33   56.453   5.9977
 T, K             2552.16  2288.74  1445.07
 RHO, KG/CU M    4.0128 0 2.4952 0 4.2010-1
 H, KJ/KG        -1379.31 -2778.61 -6864.45
 U, KJ/KG        -3904.36 -5041.04 -8292.16
 G, KJ/KG        -61076.9 -56314.5 -40666.0
 S, KJ/(KG)(K)    23.3910  23.3910  23.3910

 M, (1/n)           8.404    8.411    8.416
 (dLV/dLP)t      -1.00070 -1.00026 -1.00000
 (dLV/dLT)p        1.0157   1.0065   1.0000
 Cp, KJ/(KG)(K)    5.5304   5.2195   4.5080
 GAMMAs            1.2253   1.2370   1.2807
 SON VEL,M/SEC     1758.9   1672.9   1352.2
 MACH NUMBER        0.000    1.000    2.449

 PERFORMANCE PARAMETERS

 Ae/At                      1.0000   3.0000
 CSTAR, M/SEC               2427.4   2427.4
 CF                         0.6892   1.3645
 Ivac, M/SEC                3025.3   3743.2
 Isp, M/SEC                 1672.9   3312.1

 MOLE FRACTIONS

 *H              2.4227-3 9.4195-4 2.8101-6
 HO2             3.890 -9 3.246-10 1.610-16
 *H2             5.9814-1 5.9927-1 6.0000-1
 H2O             3.9905-1 3.9968-1 4.0000-1
 H2O2            1.606 -8 2.244 -9 3.541-14
 *O              9.331 -7 1.066 -7 1.831-13
 *OH             3.9034-4 1.1081-4 5.2325-8
 *O2             2.542 -7 2.971 -8 5.757-14
 O3              5.504-16 7.099-18 6.890-29

  * THERMODYNAMIC PROPERTIES FITTED TO 20000.K

 NOTE. WEIGHT FRACTION OF FUEL IN TOTAL FUELS AND OF OXIDANT IN TOTAL OXIDANTS

              THEORETICAL ROCKET PERFORMANCE ASSUMING EQUILIBRIUM

           COMPOSITION DURING EXPANSION FROM INFINITE AREA COMBUSTOR

 Pin =  1469.6 PSIA
 CASE = test___________

             REACTANT                    WT FRACTION      ENERGY      TEMP
                                          (SEE NOTE)     KJ/KG-MOL      K  
 FUEL        H2(L)                        1.0000000     -9012.000     20.270
 OXIDANT     O2(L)                        1.0000000    -12979.000     90.170

 O/F=    3.05257  %FUEL= 24.675698  R,EQ.RATIO= 2.600000  PHI,EQ.RATIO= 2.600000

                 CHAMBER   THROAT     EXIT
 Pinf/P            1.0000   1.7981   17.047
 P, BAR            101.33   56.351   5.9437
 T, K             2483.20  2221.05  1389.25
 RHO, KG/CU M    4.0051 0 2.4920 0 4.2037-1
 H, KJ/KG        -1408.65 -2813.28 -6893.13
 U, KJ/KG        -3938.56 -5074.58 -8307.04
 G, KJ/KG        -60466.6 -55636.5 -39933.6
 S, KJ/(KG)(K)    23.7830  23.7830  23.7830

 M, (1/n)           8.161    8.167    8.169
 (dLV/dLP)t      -1.00052 -1.00018 -1.00000
 (dLV/dLT)p        1.0118   1.0046   1.0000
 Cp, KJ/(KG)(K)    5.5485   5.2629   4.5679
 GAMMAs            1.2307   1.2423   1.2867
 SON VEL,M/SEC     1764.6   1676.1   1348.8
 MACH NUMBER        0.000    1.000    2.455

 PERFORMANCE PARAMETERS

 Ae/At                      1.0000   3.0000
 CSTAR, M/SEC               2425.9   2425.9
 CF                         0.6909   1.3652
 Ivac, M/SEC                3025.2   3738.9
 Isp, M/SEC                 1676.1   3311.9

 MOLE FRACTIONS

 *H              1.8199-3 6.6308-4 1.3496-6
 HO2             1.772 -9 1.275-10 2.635-17
 *H2             6.1396-1 6.1486-1 6.1538-1
 H2O             3.8396-1 3.8441-1 3.8462-1
 H2O2            9.003 -9 1.132 -9 9.641-15
 *O              4.499 -7 4.443 -8 3.212-14
 *OH             2.5492-4 6.6580-5 1.9195-8
 *O2             1.155 -7 1.168 -8 9.596-15
 O3              1.374-16 1.372-18 2.878-30

  * THERMODYNAMIC PROPERTIES FITTED TO 20000.K

 NOTE. WEIGHT FRACTION OF FUEL IN TOTAL FUELS AND OF OXIDANT IN TOTAL OXIDANTS

              THEORETICAL ROCKET PERFORMANCE ASSUMING EQUILIBRIUM

           COMPOSITION DURING EXPANSION FROM INFINITE AREA COMBUSTOR

 Pin =  1469.6 PSIA
 CASE = test___________

             REACTANT                    WT FRACTION      ENERGY      TEMP
                                          (SEE NOTE)     KJ/KG-MOL      K  
 FUEL        H2(L)                        1.0000000     -9012.000     20.270
 OXIDANT     O2(L)                        1.0000000    -12979.000     90.170

 O/F=    2.93951  %FUEL= 25.383854  R,EQ.RATIO= 2.700000  PHI,EQ.RATIO= 2.700000

                 CHAMBER   THROAT     EXIT
 Pinf/P            1.0000   1.8011   17.196
 P, BAR            101.33   56.256   5.8924
 T, K             2417.35  2156.92  1337.17
 RHO, KG/CU M    4.0005 0 2.4906 0 4.2090-1
 H, KJ/KG        -1437.44 -2846.14 -6917.83
 U, KJ/KG        -3970.23 -5104.91 -8317.79
 G, KJ/KG        -59847.0 -54963.1 -39227.3
 S, KJ/(KG)(K)    24.1627  24.1627  24.1627

 M, (1/n)           7.936    7.940    7.942
 (dLV/dLP)t      -1.00038 -1.00013 -1.00000
 (dLV/dLT)p        1.0089   1.0033   1.0000
 Cp, KJ/(KG)(K)    5.5776   5.3128   4.6267
 GAMMAs            1.2358   1.2473   1.2925
 SON VEL,M/SEC     1769.2   1678.5   1345.1
 MACH NUMBER        0.000    1.000    2.461

 PERFORMANCE PARAMETERS

 Ae/At                      1.0000   3.0000
 CSTAR, M/SEC               2423.8   2423.8
 CF                         0.6925   1.3659
 Ivac, M/SEC                3024.2   3733.6
 Isp, M/SEC                 1678.5   3310.7

 MOLE FRACTIONS

 *H              1.3623-3 4.6542-4 6.4381-7
 HO2             8.078-10 5.019-11 4.285-18
 *H2             6.2855-1 6.2926-1 6.2963-1
 H2O             3.6992-1 3.7024-1 3.7037-1
 H2O2            5.054 -9 5.724-10 2.617-15
 *O              2.167 -7 1.851 -8 5.583-15
 *OH             1.6639-4 4.0010-5 7.0061-9
 *O2             5.266 -8 4.611 -9 1.592-15

  * THERMODYNAMIC PROPERTIES FITTED TO 20000.K

 NOTE. WEIGHT FRACTION OF FUEL IN TOTAL FUELS AND OF OXIDANT IN TOTAL OXIDANTS

              THEORETICAL ROCKET PERFORMANCE ASSUMING EQUILIBRIUM

           COMPOSITION DURING EXPANSION FROM INFINITE AREA COMBUSTOR

 Pin =  1469.6 PSIA
 CASE = test___________

             REACTANT                    WT FRACTION      ENERGY      TEMP
                                          (SEE NOTE)     KJ/KG-MOL      K  
 FUEL        H2(L)                        1.0000000     -9012.000     20.270
 OXIDANT     O2(L)                        1.0000000    -12979.000     90.170

 O/F=    2.83453  %FUEL= 26.078818  R,EQ.RATIO= 2.800000  PHI,EQ.RATIO= 2.800000

                 CHAMBER   THROAT     EXIT
 Pinf/P            1.0000   1.8040   17.340
 P, BAR            101.33   56.167   5.8436
 T, K             2354.49  2096.14  1288.47
 RHO, KG/CU M    3.9987 0 2.4907 0 4.2164-1
 H, KJ/KG        -1465.69 -2877.36 -6939.03
 U, KJ/KG        -3999.66 -5132.41 -8324.93
 G, KJ/KG        -59222.7 -54296.7 -38545.8
 S, KJ/(KG)(K)    24.5305  24.5305  24.5305

 M, (1/n)           7.726    7.729    7.730
 (dLV/dLP)t      -1.00028 -1.00009 -1.00000
 (dLV/dLT)p        1.0067   1.0023   1.0000
 Cp, KJ/(KG)(K)    5.6152   5.3672   4.6848
 GAMMAs            1.2406   1.2520   1.2980
 SON VEL,M/SEC     1773.1   1680.3   1341.2
 MACH NUMBER        0.000    1.000    2.467

 PERFORMANCE PARAMETERS

 Ae/At                      1.0000   3.0000
 CSTAR, M/SEC               2421.1   2421.1
 CF                         0.6940   1.3666
 Ivac, M/SEC                3022.3   3727.5
 Isp, M/SEC                 1680.3   3308.6

 MOLE FRACTIONS

 *H              1.0169-3 3.2591-4 3.0511-7
 HO2             3.690-10 1.981-11 6.919-19
 *H2             6.4204-1 6.4259-1 6.4286-1
 H2O             3.5683-1 3.5706-1 3.5714-1
 H2O2            2.843 -9 2.903-10 7.075-16
 *O              1.043 -7 7.712 -9 9.611-16
 *OH             1.0859-4 2.4052-5 2.5439-9
 *O2             2.406 -8 1.826 -9 2.624-16

  * THERMODYNAMIC PROPERTIES FITTED TO 20000.K

 NOTE. WEIGHT FRACTION OF FUEL IN TOTAL FUELS AND OF OXIDANT IN TOTAL OXIDANTS

              THEORETICAL ROCKET PERFORMANCE ASSUMING EQUILIBRIUM

           COMPOSITION DURING EXPANSION FROM INFINITE AREA COMBUSTOR

 Pin =  1469.6 PSIA
 CASE = test___________

             REACTANT                    WT FRACTION      ENERGY      TEMP
                                          (SEE NOTE)     KJ/KG-MOL      K  
 FUEL        H2(L)                        1.0000000     -9012.000     20.270
 OXIDANT     O2(L)                        1.0000000    -12979.000     90.170

 O/F=    2.73679  %FUEL= 26.760957  R,EQ.RATIO= 2.900000  PHI,EQ.RATIO= 2.900000

                 CHAMBER   THROAT     EXIT
 Pinf/P            1.0000   1.8067   17.479
 P, BAR            101.33   56.083   5.7969
 T, K             2294.52  2038.49  1242.84
 RHO, KG/CU M    3.9992 0 2.4923 0 4.2258-1
 H, KJ/KG        -1493.41 -2907.10 -6957.07
 U, KJ/KG        -4027.06 -5157.37 -8328.86
 G, KJ/KG        -58597.3 -53639.0 -37887.6
 S, KJ/(KG)(K)    24.8870  24.8870  24.8870

 M, (1/n)           7.530    7.532    7.533
 (dLV/dLP)t      -1.00021 -1.00006 -1.00000
 (dLV/dLT)p        1.0051   1.0016   1.0000
 Cp, KJ/(KG)(K)    5.6592   5.4244   4.7422
 GAMMAs            1.2452   1.2565   1.3034
 SON VEL,M/SEC     1776.2   1681.5   1337.1
 MACH NUMBER        0.000    1.000    2.472

 PERFORMANCE PARAMETERS

 Ae/At                      1.0000   3.0000
 CSTAR, M/SEC               2417.8   2417.8
 CF                         0.6954   1.3672
 Ivac, M/SEC                3019.7   3720.6
 Isp, M/SEC                 1681.5   3305.6

 MOLE FRACTIONS

 *H              7.5732-4 2.2777-4 1.4368-7
 HO2             1.688-10 7.841-12 1.109-19
 *H2             6.5456-1 6.5499-1 6.5517-1
 H2O             3.4461-1 3.4477-1 3.4483-1
 H2O2            1.602 -9 1.476-10 1.906-16
 *O              5.015 -8 3.215 -9 1.638-16
 *OH             7.087 -5 1.447 -5 9.188-10
 *O2             1.103 -8 7.258-10 4.300-17

  * THERMODYNAMIC PROPERTIES FITTED TO 20000.K

 NOTE. WEIGHT FRACTION OF FUEL IN TOTAL FUELS AND OF OXIDANT IN TOTAL OXIDANTS

              THEORETICAL ROCKET PERFORMANCE ASSUMING EQUILIBRIUM

           COMPOSITION DURING EXPANSION FROM INFINITE AREA COMBUSTOR

 Pin =  1469.6 PSIA
 CASE = test___________

             REACTANT                    WT FRACTION      ENERGY      TEMP
                                          (SEE NOTE)     KJ/KG-MOL      K  
 FUEL        H2(L)                        1.0000000     -9012.000     20.270
 OXIDANT     O2(L)                        1.0000000    -12979.000     90.170

 O/F=    2.64556  %FUEL= 27.430621  R,EQ.RATIO= 3.000000  PHI,EQ.RATIO= 3.000000

                 CHAMBER   THROAT     EXIT
 Pinf/P            1.0000   1.8093   17.615
 P, BAR            101.33   56.003   5.7523
 T, K             2237.30  1983.76  1200.01
 RHO, KG/CU M    4.0018 0 2.4951 0 4.2369-1
 H, KJ/KG        -1520.63 -2935.50 -6972.29
 U, KJ/KG        -4052.64 -5180.06 -8329.96
 G, KJ/KG        -57973.7 -52991.1 -37251.9
 S, KJ/(KG)(K)    25.2327  25.2327  25.2327

 M, (1/n)           7.347    7.348    7.349
 (dLV/dLP)t      -1.00015 -1.00004 -1.00000
 (dLV/dLT)p        1.0038   1.0012   1.0000
 Cp, KJ/(KG)(K)    5.7080   5.4833   4.7992
 GAMMAs            1.2494   1.2607   1.3085
 SON VEL,M/SEC     1778.6   1682.2   1332.8
 MACH NUMBER        0.000    1.000    2.477

 PERFORMANCE PARAMETERS

 Ae/At                      1.0000   3.0000
 CSTAR, M/SEC               2414.2   2414.2
 CF                         0.6968   1.3678
 Ivac, M/SEC                3016.5   3713.2
 Isp, M/SEC                 1682.2   3302.0

 MOLE FRACTIONS

 *H              5.6294-4 1.5892-4 6.7252-8
 HO2             7.742-11 3.111-12 1.764-20
 *H2             6.6621-1 6.6654-1 6.6667-1
 H2O             3.3319-1 3.3330-1 3.3333-1
 H2O2            9.050-10 7.526-11 5.111-17
 *O              2.413 -8 1.341 -9 2.766-17
 *OH             4.627 -5 8.704 -6 3.301-10
 *O2             5.068 -9 2.894-10 7.000-18

  * THERMODYNAMIC PROPERTIES FITTED TO 20000.K

 NOTE. WEIGHT FRACTION OF FUEL IN TOTAL FUELS AND OF OXIDANT IN TOTAL OXIDANTS