

         NASA-GLENN CHEMICAL EQUILIBRIUM PROGRAM CEA2, FEBRUARY 5, 2004
                   BY  BONNIE MCBRIDE AND SANFORD GORDON
      REFS: NASA RP-1311, PART I, 1994 AND NASA RP-1311, PART II, 1996

 *******************************************************************************

  
 ### CEA analysis performed on Mon 29-Aug-2022 03:12:22
  
 # Problem Type: "Rocket" (Finite Area Combustor)
  
 prob case=test___________9755 ro equilibrium    fac
  
 !Contraction Ratio:
 ac/at=2
  
 # Pressure (1 value):
 p,atm= 100
 # Supersonic Area Ratio (1 value):
 supar= 8
  
 # Equivalence based on Fuel/Oxid. wt ratio (Eq 9.19*) (26 values):
 phi= 0.5, 0.6, 0.7, 0.8, 0.9, 1, 1.1, 1.2, 1.3, 1.4, 1.5, 1.6, 1.7, 1.8, 1.9, 2,
  2.1, 2.2, 2.3, 2.4, 2.5, 2.6, 2.7, 2.8, 2.9, 3
  
 # You selected the following fuels and oxidizers:
 reac
 fuel H2(L)             wt%=100.0000
 oxid O2(L)             wt%=100.0000
  
 # You selected these options for output:
 # short version of output
 output short
 # Proportions of any products will be expressed as Mole Fractions.
 # Heat will be expressed as siunits
 output siunits
 # Trace variable:
 output trace=1e-16
  
 # Input prepared by this script:/var/www/sites/cearun.grc.nasa.gov/cgi-bin/CEARU
 N/prepareInputFile.cgi
  
 ### IMPORTANT:  The following line is the end of your CEA input file!
 end

              THEORETICAL ROCKET PERFORMANCE ASSUMING EQUILIBRIUM

            COMPOSITION DURING EXPANSION FROM FINITE AREA COMBUSTOR

 Pin =  1469.6 PSIA
 Ac/At =  2.0000      Pinj/Pinf =  1.052107
 CASE = test___________

             REACTANT                    WT FRACTION      ENERGY      TEMP
                                          (SEE NOTE)     KJ/KG-MOL      K  
 FUEL        H2(L)                        1.0000000     -9012.000     20.270
 OXIDANT     O2(L)                        1.0000000    -12979.000     90.170

 O/F=   15.87337  %FUEL=  5.926500  R,EQ.RATIO= 0.500000  PHI,EQ.RATIO= 0.500000

                 INJECTOR  COMB END  THROAT     EXIT
 Pinj/P            1.0000   1.1131   1.8306   58.687
 P, BAR            101.33   91.031   55.350   1.7265
 T, K             3199.40  3175.78  3000.32  1843.86
 RHO, KG/CU M    8.3752 0 7.5841 0 4.9148 0 2.5519-1
 H, KJ/KG         -646.51  -714.38 -1292.95 -4392.89
 U, KJ/KG        -1856.34 -1914.66 -2419.15 -5069.45
 G, KJ/KG        -37752.7 -37607.5 -36147.8 -25813.1
 S, KJ/(KG)(K)    11.5978  11.6171  11.6171  11.6171

 M, (1/n)          21.988   21.999   22.151   22.660
 (dLV/dLP)t      -1.01102 -1.01084 -1.00823 -1.00020
 (dLV/dLT)p        1.2276   1.2257   1.1832   1.0080
 Cp, KJ/(KG)(K)    4.1141   4.1080   3.8314   2.1555
 GAMMAs            1.1461   1.1460   1.1480   1.2089
 SON VEL,M/SEC     1177.5   1172.8   1137.0    904.4
 MACH NUMBER        0.000    0.314    1.000    3.027

 PERFORMANCE PARAMETERS

 Ae/At                      2.0000   1.0000   8.0000
 CSTAR, M/SEC               1723.3   1723.3   1723.3
 CF                         0.2138   0.6598   1.5884
 Ivac, M/SEC                3626.3   2127.5   2984.5
 Isp, M/SEC                  368.4   1137.0   2737.3

 MOLE FRACTIONS

 *H              2.6585-3 2.6091-3 1.7342-3 3.2795-6
 HO2             6.2475-4 5.8687-4 3.9408-4 6.2178-6
 *H2             9.0713-3 8.9283-3 6.6423-3 7.0354-5
 H2O             5.9934-1 6.0045-1 6.1459-1 6.6482-1
 H2O2            7.7010-5 7.0912-5 4.4511-5 5.3884-7
 *O              1.1770-2 1.1567-2 8.4825-3 8.0039-5
 *OH             7.2588-2 7.1405-2 5.7742-2 2.5790-3
 *O2             3.0387-1 3.0438-1 3.1037-1 3.3244-1
 O3              3.4966-6 3.1628-6 1.7315-6 7.0362-9

  * THERMODYNAMIC PROPERTIES FITTED TO 20000.K

 NOTE. WEIGHT FRACTION OF FUEL IN TOTAL FUELS AND OF OXIDANT IN TOTAL OXIDANTS

              THEORETICAL ROCKET PERFORMANCE ASSUMING EQUILIBRIUM

            COMPOSITION DURING EXPANSION FROM FINITE AREA COMBUSTOR

 Pin =  1469.6 PSIA
 Ac/At =  2.0000      Pinj/Pinf =  1.051848
 CASE = test___________

             REACTANT                    WT FRACTION      ENERGY      TEMP
                                          (SEE NOTE)     KJ/KG-MOL      K  
 FUEL        H2(L)                        1.0000000     -9012.000     20.270
 OXIDANT     O2(L)                        1.0000000    -12979.000     90.170

 O/F=   13.22780  %FUEL=  7.028491  R,EQ.RATIO= 0.600000  PHI,EQ.RATIO= 0.600000

                 INJECTOR  COMB END  THROAT     EXIT
 Pinj/P            1.0000   1.1125   1.8243   55.718
 P, BAR            101.33   91.079   55.543   1.8185
 T, K             3363.65  3339.58  3170.28  2081.08
 RHO, KG/CU M    7.4461 0 6.7451 0 4.3693 0 2.2549-1
 H, KJ/KG         -691.31  -767.26 -1415.33 -4939.05
 U, KJ/KG        -2052.09 -2117.56 -2686.53 -5745.53
 G, KJ/KG        -42586.0 -42430.4 -40966.4 -30901.8
 S, KJ/(KG)(K)    12.4551  12.4756  12.4756  12.4756

 M, (1/n)          20.552   20.564   20.736   21.455
 (dLV/dLP)t      -1.01719 -1.01699 -1.01369 -1.00080
 (dLV/dLT)p        1.3313   1.3299   1.2820   1.0273
 Cp, KJ/(KG)(K)    5.1374   5.1411   4.8519   2.6333
 GAMMAs            1.1394   1.1391   1.1391   1.1827
 SON VEL,M/SEC     1245.2   1240.2   1203.4    976.7
 MACH NUMBER        0.000    0.314    1.000    2.984

 PERFORMANCE PARAMETERS

 Ae/At                      2.0000   1.0000   8.0000
 CSTAR, M/SEC               1832.1   1832.1   1832.1
 CF                         0.2127   0.6568   1.5909
 Ivac, M/SEC                3854.3   2259.7   3191.4
 Isp, M/SEC                  389.7   1203.3   2914.7

 MOLE FRACTIONS

 *H              5.7812-3 5.7151-3 4.2048-3 4.9326-5
 HO2             6.4936-4 6.1202-4 4.2944-4 1.4402-5
 *H2             1.8412-2 1.8215-2 1.4583-2 5.7550-4
 H2O             6.4833-1 6.4958-1 6.6703-1 7.4331-1
 H2O2            8.6802-5 8.0162-5 5.2308-5 1.2089-6
 *O              1.5967-2 1.5778-2 1.2470-2 4.4864-4
 *OH             9.3041-2 9.1849-2 7.7983-2 8.2566-3
 *O2             2.1773-1 2.1817-1 2.2325-1 2.4735-1
 O3              2.9483-6 2.6753-6 1.5341-6 1.3901-8

  * THERMODYNAMIC PROPERTIES FITTED TO 20000.K

 NOTE. WEIGHT FRACTION OF FUEL IN TOTAL FUELS AND OF OXIDANT IN TOTAL OXIDANTS

              THEORETICAL ROCKET PERFORMANCE ASSUMING EQUILIBRIUM

            COMPOSITION DURING EXPANSION FROM FINITE AREA COMBUSTOR

 Pin =  1469.6 PSIA
 Ac/At =  2.0000      Pinj/Pinf =  1.051700
 CASE = test___________

             REACTANT                    WT FRACTION      ENERGY      TEMP
                                          (SEE NOTE)     KJ/KG-MOL      K  
 FUEL        H2(L)                        1.0000000     -9012.000     20.270
 OXIDANT     O2(L)                        1.0000000    -12979.000     90.170

 O/F=   11.33812  %FUEL=  8.104964  R,EQ.RATIO= 0.700000  PHI,EQ.RATIO= 0.700000

                 INJECTOR  COMB END  THROAT     EXIT
 Pinj/P            1.0000   1.1122   1.8206   53.783
 P, BAR            101.33   91.107   55.653   1.8839
 T, K             3483.15  3458.55  3293.28  2265.91
 RHO, KG/CU M    6.7444 0 6.1109 0 3.9576 0 2.0356-1
 H, KJ/KG         -735.07  -818.67 -1532.43 -5444.39
 U, KJ/KG        -2237.42 -2309.56 -2938.67 -6369.90
 G, KJ/KG        -46958.9 -46791.3 -45308.2 -35563.9
 S, KJ/(KG)(K)    13.2707  13.2925  13.2925  13.2925

 M, (1/n)          19.277   19.288   19.472   20.356
 (dLV/dLP)t      -1.02399 -1.02379 -1.01992 -1.00210
 (dLV/dLT)p        1.4393   1.4388   1.3880   1.0634
 Cp, KJ/(KG)(K)    6.2304   6.2457   5.9559   3.2784
 GAMMAs            1.1356   1.1352   1.1340   1.1612
 SON VEL,M/SEC     1306.2   1300.9   1262.8   1036.7
 MACH NUMBER        0.000    0.314    1.000    2.960

 PERFORMANCE PARAMETERS

 Ae/At                      2.0000   1.0000   8.0000
 CSTAR, M/SEC               1927.8   1927.8   1927.8
 CF                         0.2121   0.6551   1.5920
 Ivac, M/SEC                4054.8   2376.4   3370.5
 Isp, M/SEC                  408.9   1262.8   3069.0

 MOLE FRACTIONS

 *H              1.0123-2 1.0047-2 7.8735-3 2.8994-4
 HO2             5.9241-4 5.5941-4 4.0263-4 2.1665-5
 *H2             3.2056-2 3.1801-2 2.6676-2 2.4120-3
 H2O             6.8472-1 6.8605-1 7.0632-1 8.0757-1
 H2O2            8.7069-5 8.0541-5 5.3788-5 1.8781-6
 *O              1.8086-2 1.7927-2 1.4816-2 1.2259-3
 *OH             1.0564-1 1.0450-1 9.1379-2 1.6601-2
 *O2             1.4869-1 1.4904-1 1.5248-1 1.7188-1
 O3              2.0865-6 1.8966-6 1.1151-6 1.6647-8

  * THERMODYNAMIC PROPERTIES FITTED TO 20000.K

 NOTE. WEIGHT FRACTION OF FUEL IN TOTAL FUELS AND OF OXIDANT IN TOTAL OXIDANTS

              THEORETICAL ROCKET PERFORMANCE ASSUMING EQUILIBRIUM

            COMPOSITION DURING EXPANSION FROM FINITE AREA COMBUSTOR

 Pin =  1469.6 PSIA
 Ac/At =  2.0000      Pinj/Pinf =  1.051608
 CASE = test___________

             REACTANT                    WT FRACTION      ENERGY      TEMP
                                          (SEE NOTE)     KJ/KG-MOL      K  
 FUEL        H2(L)                        1.0000000     -9012.000     20.270
 OXIDANT     O2(L)                        1.0000000    -12979.000     90.170

 O/F=    9.92085  %FUEL=  9.156794  R,EQ.RATIO= 0.800000  PHI,EQ.RATIO= 0.800000

                 INJECTOR  COMB END  THROAT     EXIT
 Pinj/P            1.0000   1.1119   1.8184   52.504
 P, BAR            101.33   91.124   55.723   1.9298
 T, K             3568.12  3543.05  3380.91  2406.53
 RHO, KG/CU M    6.1936 0 5.6127 0 3.6345 0 1.8657-1
 H, KJ/KG         -777.82  -868.70 -1644.71 -5918.31
 U, KJ/KG        -2413.79 -2492.22 -3177.88 -6952.71
 G, KJ/KG        -50907.4 -50727.8 -49222.1 -39783.9
 S, KJ/(KG)(K)    14.0493  14.0724  14.0724  14.0724

 M, (1/n)          18.134   18.145   18.335   19.344
 (dLV/dLP)t      -1.03110 -1.03090 -1.02668 -1.00436
 (dLV/dLT)p        1.5491   1.5494   1.4987   1.1195
 Cp, KJ/(KG)(K)    7.3993   7.4275   7.1541   4.1175
 GAMMAs            1.1333   1.1328   1.1308   1.1448
 SON VEL,M/SEC     1361.6   1356.1   1316.7   1088.2
 MACH NUMBER        0.000    0.314    1.000    2.947

 PERFORMANCE PARAMETERS

 Ae/At                      2.0000   1.0000   8.0000
 CSTAR, M/SEC               2013.4   2013.4   2013.4
 CF                         0.2117   0.6540   1.5926
 Ivac, M/SEC                4234.5   2481.1   3529.0
 Isp, M/SEC                  426.3   1316.7   3206.4

 MOLE FRACTIONS

 *H              1.5438-2 1.5358-2 1.2574-2 9.9224-4
 HO2             4.8416-4 4.5769-4 3.3326-4 2.3766-5
 *H2             5.1007-2 5.0686-2 4.4031-2 7.0330-3
 H2O             7.0981-1 7.1120-1 7.3392-1 8.5870-1
 H2O2            7.9431-5 7.3546-5 4.9721-5 2.2442-6
 *O              1.7910-2 1.7784-2 1.5082-2 2.1066-3
 *OH             1.0974-1 1.0867-1 9.6747-2 2.4818-2
 *O2             9.5534-2 9.5766-2 9.7259-2 1.0632-1
 O3              1.2543-6 1.1412-6 6.7489-7 1.3175-8

  * THERMODYNAMIC PROPERTIES FITTED TO 20000.K

 NOTE. WEIGHT FRACTION OF FUEL IN TOTAL FUELS AND OF OXIDANT IN TOTAL OXIDANTS

              THEORETICAL ROCKET PERFORMANCE ASSUMING EQUILIBRIUM

            COMPOSITION DURING EXPANSION FROM FINITE AREA COMBUSTOR

 Pin =  1469.6 PSIA
 Ac/At =  2.0000      Pinj/Pinf =  1.051552
 CASE = test___________

             REACTANT                    WT FRACTION      ENERGY      TEMP
                                          (SEE NOTE)     KJ/KG-MOL      K  
 FUEL        H2(L)                        1.0000000     -9012.000     20.270
 OXIDANT     O2(L)                        1.0000000    -12979.000     90.170

 O/F=    8.81854  %FUEL= 10.184817  R,EQ.RATIO= 0.900000  PHI,EQ.RATIO= 0.900000

                 INJECTOR  COMB END  THROAT     EXIT
 Pinj/P            1.0000   1.1118   1.8170   51.628
 P, BAR            101.33   91.135   55.766   1.9626
 T, K             3621.85  3596.44  3436.75  2508.44
 RHO, KG/CU M    5.7527 0 5.2138 0 3.3760 0 1.7309-1
 H, KJ/KG         -819.61  -917.34 -1751.99 -6361.41
 U, KJ/KG        -2580.95 -2665.28 -3403.85 -7495.26
 G, KJ/KG        -54400.2 -54210.0 -52678.3 -43531.9
 S, KJ/(KG)(K)    14.7937  14.8182  14.8182  14.8182

 M, (1/n)          17.097   17.107   17.299   18.394
 (dLV/dLP)t      -1.03741 -1.03722 -1.03297 -1.00794
 (dLV/dLT)p        1.6457   1.6469   1.6006   1.2021
 Cp, KJ/(KG)(K)    8.5563   8.5977   8.3692   5.2356
 GAMMAs            1.1319   1.1313   1.1289   1.1323
 SON VEL,M/SEC     1412.0   1406.2   1365.6   1133.1
 MACH NUMBER        0.000    0.314    1.000    2.938

 PERFORMANCE PARAMETERS

 Ae/At                      2.0000   1.0000   8.0000
 CSTAR, M/SEC               2090.2   2090.2   2090.2
 CF                         0.2115   0.6533   1.5928
 Ivac, M/SEC                4395.8   2575.2   3669.8
 Isp, M/SEC                  442.1   1365.6   3329.2

 MOLE FRACTIONS

 *H              2.1208-2 2.1128-2 1.7861-2 2.4535-3
 HO2             3.5520-4 3.3588-4 2.4340-4 1.8819-5
 *H2             7.6407-2 7.6011-2 6.8104-2 1.7298-2
 H2O             7.2383-1 7.2528-1 7.4993-1 8.9616-1
 H2O2            6.6211-5 6.1327-5 4.1459-5 2.0780-6
 *O              1.5729-2 1.5630-2 1.3362-2 2.4647-3
 *OH             1.0543-1 1.0446-1 9.3692-2 2.9281-2
 *O2             5.6972-2 5.7091-2 5.6763-2 5.2324-2
 O3              6.3543-7 5.7801-7 3.3481-7 6.2896-9

  * THERMODYNAMIC PROPERTIES FITTED TO 20000.K

 NOTE. WEIGHT FRACTION OF FUEL IN TOTAL FUELS AND OF OXIDANT IN TOTAL OXIDANTS

              THEORETICAL ROCKET PERFORMANCE ASSUMING EQUILIBRIUM

            COMPOSITION DURING EXPANSION FROM FINITE AREA COMBUSTOR

 Pin =  1469.6 PSIA
 Ac/At =  2.0000      Pinj/Pinf =  1.051538
 CASE = test___________

             REACTANT                    WT FRACTION      ENERGY      TEMP
                                          (SEE NOTE)     KJ/KG-MOL      K  
 FUEL        H2(L)                        1.0000000     -9012.000     20.270
 OXIDANT     O2(L)                        1.0000000    -12979.000     90.170

 O/F=    7.93668  %FUEL= 11.189834  R,EQ.RATIO= 1.000000  PHI,EQ.RATIO= 1.000000

                 INJECTOR  COMB END  THROAT     EXIT
 Pinj/P            1.0000   1.1118   1.8166   51.214
 P, BAR            101.33   91.137   55.778   1.9785
 T, K             3644.27  3618.68  3459.82  2557.21
 RHO, KG/CU M    5.3982 0 4.8927 0 3.1681 0 1.6239-1
 H, KJ/KG         -860.46  -964.58 -1853.76 -6767.30
 U, KJ/KG        -2737.49 -2827.30 -3614.42 -7985.63
 G, KJ/KG        -57368.3 -57169.2 -55591.1 -46485.3
 S, KJ/(KG)(K)    15.5059  15.5318  15.5318  15.5318

 M, (1/n)          16.143   16.152   16.339   17.452
 (dLV/dLP)t      -1.04046 -1.04028 -1.03614 -1.01156
 (dLV/dLT)p        1.6920   1.6937   1.6518   1.2838
 Cp, KJ/(KG)(K)    9.4067   9.4567   9.2630   6.4020
 GAMMAs            1.1316   1.1310   1.1283   1.1250
 SON VEL,M/SEC     1457.4   1451.5   1409.5   1170.7
 MACH NUMBER        0.000    0.314    1.000    2.936

 PERFORMANCE PARAMETERS

 Ae/At                      2.0000   1.0000   8.0000
 CSTAR, M/SEC               2158.0   2158.0   2158.0
 CF                         0.2115   0.6531   1.5928
 Ivac, M/SEC                4538.4   2658.6   3791.6
 Isp, M/SEC                  456.3   1409.5   3437.1

 MOLE FRACTIONS

 *H              2.6551-2 2.6471-2 2.2859-2 4.6631-3
 HO2             2.3350-4 2.2061-4 1.5534-4 8.3620-6
 *H2             1.0897-1 1.0851-1 1.0019-1 4.1468-2
 H2O             7.2667-1 7.2816-1 7.5372-1 9.1246-1
 H2O2            5.0423-5 4.6680-5 3.1003-5 1.2529-6
 *O              1.2286-2 1.2204-2 1.0278-2 1.6522-3
 *OH             9.3940-2 9.3065-2 8.2967-2 2.4912-2
 *O2             3.1294-2 3.1317-2 2.9796-2 1.4838-2
 O3              2.6904-7 2.4424-7 1.3297-7 1.1010-9

  * THERMODYNAMIC PROPERTIES FITTED TO 20000.K

 NOTE. WEIGHT FRACTION OF FUEL IN TOTAL FUELS AND OF OXIDANT IN TOTAL OXIDANTS

              THEORETICAL ROCKET PERFORMANCE ASSUMING EQUILIBRIUM

            COMPOSITION DURING EXPANSION FROM FINITE AREA COMBUSTOR

 Pin =  1469.6 PSIA
 Ac/At =  2.0000      Pinj/Pinf =  1.051588
 CASE = test___________

             REACTANT                    WT FRACTION      ENERGY      TEMP
                                          (SEE NOTE)     KJ/KG-MOL      K  
 FUEL        H2(L)                        1.0000000     -9012.000     20.270
 OXIDANT     O2(L)                        1.0000000    -12979.000     90.170

 O/F=    7.21517  %FUEL= 12.172608  R,EQ.RATIO= 1.100000  PHI,EQ.RATIO= 1.100000

                 INJECTOR  COMB END  THROAT     EXIT
 Pinj/P            1.0000   1.1119   1.8177   52.162
 P, BAR            101.33   91.128   55.742   1.9425
 T, K             3635.58  3609.88  3448.60  2488.07
 RHO, KG/CU M    5.1142 0 4.6351 0 3.0015 0 1.5396-1
 H, KJ/KG         -900.41 -1010.41 -1949.69 -7131.47
 U, KJ/KG        -2881.68 -2976.48 -3806.83 -8393.14
 G, KJ/KG        -59751.7 -59544.6 -57868.8 -47475.5
 S, KJ/(KG)(K)    16.1876  16.2150  16.2150  16.2150

 M, (1/n)          15.257   15.266   15.440   16.397
 (dLV/dLP)t      -1.03812 -1.03792 -1.03346 -1.00559
 (dLV/dLT)p        1.6539   1.6550   1.6056   1.1417
 Cp, KJ/(KG)(K)    9.5876   9.6329   9.3489   5.0370
 GAMMAs            1.1330   1.1324   1.1300   1.1437
 SON VEL,M/SEC     1498.2   1492.1   1448.6   1201.2
 MACH NUMBER        0.000    0.314    1.000    2.939

 PERFORMANCE PARAMETERS

 Ae/At                      2.0000   1.0000   8.0000
 CSTAR, M/SEC               2216.0   2216.0   2216.0
 CF                         0.2117   0.6537   1.5930
 Ivac, M/SEC                4660.7   2730.6   3887.6
 Isp, M/SEC                  469.0   1448.6   3530.2

 MOLE FRACTIONS

 *H              3.0401-2 3.0312-2 2.6358-2 5.3111-3
 HO2             1.3837-4 1.3040-4 8.6530-5 1.1566-6
 *H2             1.4817-1 1.4770-1 1.4026-1 9.5991-2
 H2O             7.1883-1 7.2032-1 7.4522-1 8.8592-1
 H2O2            3.5253-5 3.2579-5 2.0772-5 3.1729-7
 *O              8.5859-3 8.5119-3 6.8575-3 3.6342-4
 *OH             7.7919-2 7.7113-2 6.7153-2 1.1039-2
 *O2             1.5916-2 1.5880-2 1.4048-2 1.3768-3
 O3              9.611 -8 8.683 -8 4.214 -8 2.512-11

  * THERMODYNAMIC PROPERTIES FITTED TO 20000.K

 NOTE. WEIGHT FRACTION OF FUEL IN TOTAL FUELS AND OF OXIDANT IN TOTAL OXIDANTS

              THEORETICAL ROCKET PERFORMANCE ASSUMING EQUILIBRIUM

            COMPOSITION DURING EXPANSION FROM FINITE AREA COMBUSTOR

 Pin =  1469.6 PSIA
 Ac/At =  2.0000      Pinj/Pinf =  1.051715
 CASE = test___________

             REACTANT                    WT FRACTION      ENERGY      TEMP
                                          (SEE NOTE)     KJ/KG-MOL      K  
 FUEL        H2(L)                        1.0000000     -9012.000     20.270
 OXIDANT     O2(L)                        1.0000000    -12979.000     90.170

 O/F=    6.61390  %FUEL= 13.133870  R,EQ.RATIO= 1.200000  PHI,EQ.RATIO= 1.200000

                 INJECTOR  COMB END  THROAT     EXIT
 Pinj/P            1.0000   1.1122   1.8209   54.452
 P, BAR            101.33   91.104   55.646   1.8608
 T, K             3599.02  3573.18  3405.58  2320.97
 RHO, KG/CU M    4.8879 0 4.4293 0 2.8688 0 1.4753-1
 H, KJ/KG         -939.49 -1054.87 -2039.68 -7439.78
 U, KJ/KG        -3012.47 -3111.74 -3979.41 -8701.10
 G, KJ/KG        -61548.3 -61332.5 -59490.0 -46593.3
 S, KJ/(KG)(K)    16.8404  16.8695  16.8695  16.8695

 M, (1/n)          14.435   14.444   14.598   15.300
 (dLV/dLP)t      -1.03171 -1.03147 -1.02649 -1.00165
 (dLV/dLT)p        1.5496   1.5492   1.4856   1.0438
 Cp, KJ/(KG)(K)    9.1216   9.1488   8.6716   3.9443
 GAMMAs            1.1363   1.1358   1.1344   1.1743
 SON VEL,M/SEC     1534.7   1528.4   1483.4   1217.1
 MACH NUMBER        0.000    0.314    1.000    2.963

 PERFORMANCE PARAMETERS

 Ae/At                      2.0000  1.00000   8.0000
 CSTAR, M/SEC               2264.0   2264.0   2264.0
 CF                         0.2122   0.6552   1.5926
 Ivac, M/SEC                4762.2   2791.0   3955.5
 Isp, M/SEC                  480.4   1483.4   3605.6

 MOLE FRACTIONS

 *H              3.2020-2 3.1901-2 2.7453-2 3.2265-3
 HO2             7.5284-5 7.0624-5 4.2886-5 7.6232-8
 *H2             1.9197-1 1.9156-1 1.8612-1 1.6618-1
 H2O             7.0206-1 7.0348-1 7.2613-1 8.2753-1
 H2O2            2.2952-5 2.1141-5 1.2651-5 4.5196-8
 *O              5.4541-3 5.3861-3 4.0306-3 3.4975-5
 *OH             6.0756-2 5.9997-2 5.0141-2 2.9572-3
 *O2             7.6344-3 7.5798-3 6.0761-3 7.2554-5
 O3              2.994 -8 2.682 -8 1.104 -8 1.738-13

  * THERMODYNAMIC PROPERTIES FITTED TO 20000.K

 NOTE. WEIGHT FRACTION OF FUEL IN TOTAL FUELS AND OF OXIDANT IN TOTAL OXIDANTS

              THEORETICAL ROCKET PERFORMANCE ASSUMING EQUILIBRIUM

            COMPOSITION DURING EXPANSION FROM FINITE AREA COMBUSTOR

 Pin =  1469.6 PSIA
 Ac/At =  2.0000      Pinj/Pinf =  1.051909
 CASE = test___________

             REACTANT                    WT FRACTION      ENERGY      TEMP
                                          (SEE NOTE)     KJ/KG-MOL      K  
 FUEL        H2(L)                        1.0000000     -9012.000     20.270
 OXIDANT     O2(L)                        1.0000000    -12979.000     90.170

 O/F=    6.10514  %FUEL= 14.074317  R,EQ.RATIO= 1.300000  PHI,EQ.RATIO= 1.300000

                 INJECTOR  COMB END  THROAT     EXIT
 Pinj/P            1.0000   1.1126   1.8257   56.932
 P, BAR            101.33   91.068   55.500   1.7797
 T, K             3540.77  3514.73  3338.01  2145.22
 RHO, KG/CU M    4.7076 0 4.2649 0 2.7631 0 1.4276-1
 H, KJ/KG         -977.71 -1097.97 -2123.74 -7685.17
 U, KJ/KG        -3130.07 -3233.27 -4132.37 -8931.84
 G, KJ/KG        -62821.4 -62594.9 -60528.6 -45220.0
 S, KJ/(KG)(K)    17.4662  17.4969  17.4969  17.4969

 M, (1/n)          13.678   13.686   13.817   14.307
 (dLV/dLP)t      -1.02450 -1.02422 -1.01925 -1.00055
 (dLV/dLT)p        1.4305   1.4287   1.3587   1.0153
 Cp, KJ/(KG)(K)    8.3879   8.3946   7.7733   3.6425
 GAMMAs            1.1413   1.1409   1.1411   1.1960
 SON VEL,M/SEC     1567.3   1560.8   1514.0   1221.1
 MACH NUMBER        0.000    0.314    1.000    2.999

 PERFORMANCE PARAMETERS

 Ae/At                      2.0000   1.0000   8.0000
 CSTAR, M/SEC               2302.7   2302.7   2302.7
 CF                         0.2130   0.6575   1.5906
 Ivac, M/SEC                4844.4   2840.7   4003.0
 Isp, M/SEC                  490.4   1514.0   3662.6

 MOLE FRACTIONS

 *H              3.1378-2 3.1209-2 2.6155-2 1.4767-3
 HO2             3.8542-5 3.5922-5 1.9549-5 4.6951-9
 *H2             2.3763-1 2.3732-1 2.3429-1 2.3014-1
 H2O             6.7903-1 6.8032-1 6.9972-1 7.6767-1
 H2O2            1.4186-5 1.3005-5 7.1867-6 6.0273-9
 *O              3.2212-3 3.1629-3 2.1498-3 2.8429-6
 *OH             4.5162-2 4.4453-2 3.5169-2 7.0694-4
 *O2             3.5329-3 3.4844-3 2.4896-3 4.0198-6
 O3              8.491 -9 7.520 -9 2.538 -9 1.166-15

  * THERMODYNAMIC PROPERTIES FITTED TO 20000.K

 NOTE. WEIGHT FRACTION OF FUEL IN TOTAL FUELS AND OF OXIDANT IN TOTAL OXIDANTS

              THEORETICAL ROCKET PERFORMANCE ASSUMING EQUILIBRIUM

            COMPOSITION DURING EXPANSION FROM FINITE AREA COMBUSTOR

 Pin =  1469.6 PSIA
 Ac/At =  2.0000      Pinj/Pinf =  1.052148
 CASE = test___________

             REACTANT                    WT FRACTION      ENERGY      TEMP
                                          (SEE NOTE)     KJ/KG-MOL      K  
 FUEL        H2(L)                        1.0000000     -9012.000     20.270
 OXIDANT     O2(L)                        1.0000000    -12979.000     90.170

 O/F=    5.66906  %FUEL= 14.994619  R,EQ.RATIO= 1.400000  PHI,EQ.RATIO= 1.400000

                 INJECTOR  COMB END  THROAT     EXIT
 Pinj/P            1.0000   1.1132   1.8315   59.259
 P, BAR            101.33   91.023   55.323   1.7099
 T, K             3467.70  3441.38  3254.46  1985.15
 RHO, KG/CU M    4.5633 0 4.1329 0 2.6786 0 1.3922-1
 H, KJ/KG        -1015.12 -1139.76 -2201.98 -7880.12
 U, KJ/KG        -3235.56 -3342.17 -4267.34 -9108.31
 G, KJ/KG        -63664.9 -63426.1 -61105.2 -43809.7
 S, KJ/(KG)(K)    18.0667  18.0992  18.0992  18.0992

 M, (1/n)          12.985   12.992   13.102   13.439
 (dLV/dLP)t      -1.01837 -1.01810 -1.01361 -1.00019
 (dLV/dLT)p        1.3279   1.3254   1.2582   1.0056
 Cp, KJ/(KG)(K)    7.6829   7.6739   6.9999   3.5727
 GAMMAs            1.1476   1.1473   1.1493   1.2120
 SON VEL,M/SEC     1596.3   1589.6   1540.7   1220.1
 MACH NUMBER        0.000    0.314    1.000    3.037

 PERFORMANCE PARAMETERS

 Ae/At                      2.0000   1.0000   8.0000
 CSTAR, M/SEC               2333.5   2333.5   2333.5
 CF                         0.2140   0.6602   1.5879
 Ivac, M/SEC                4910.5   2881.2   4036.9
 Isp, M/SEC                  499.3   1540.7   3705.4

 MOLE FRACTIONS

 *H              2.9014-2 2.8786-2 2.3212-2 6.0088-4
 HO2             1.897 -5 1.754 -5 8.450 -6 2.979-10
 *H2             2.8273-1 2.8255-1 2.8170-1 2.8539-1
 H2O             6.5238-1 6.5351-1 6.6940-1 7.1385-1
 H2O2            8.472 -6 7.720 -6 3.902 -6 8.188-10
 *O              1.8067-3 1.7612-3 1.0717-3 2.2442-7
 *OH             3.2439-2 3.1798-2 2.3606-2 1.6505-4
 *O2             1.6058-3 1.5711-3 9.9195-4 2.4228-7
 O3              2.275 -9 1.987 -9 5.395-10 8.631-18

  * THERMODYNAMIC PROPERTIES FITTED TO 20000.K

 NOTE. WEIGHT FRACTION OF FUEL IN TOTAL FUELS AND OF OXIDANT IN TOTAL OXIDANTS

              THEORETICAL ROCKET PERFORMANCE ASSUMING EQUILIBRIUM

            COMPOSITION DURING EXPANSION FROM FINITE AREA COMBUSTOR

 Pin =  1469.6 PSIA
 Ac/At =  2.0000      Pinj/Pinf =  1.052412
 CASE = test___________

             REACTANT                    WT FRACTION      ENERGY      TEMP
                                          (SEE NOTE)     KJ/KG-MOL      K  
 FUEL        H2(L)                        1.0000000     -9012.000     20.270
 OXIDANT     O2(L)                        1.0000000    -12979.000     90.170

 O/F=    5.29112  %FUEL= 15.895416  R,EQ.RATIO= 1.500000  PHI,EQ.RATIO= 1.500000

                 INJECTOR  COMB END  THROAT     EXIT
 Pinj/P            1.0000   1.1138   1.8379   61.389
 P, BAR            101.33   90.974   55.131   1.6505
 T, K             3385.51  3358.89  3161.95  1843.44
 RHO, KG/CU M    4.4468 0 4.0262 0 2.6107 0 1.3655-1
 H, KJ/KG        -1051.74 -1180.30 -2274.70 -8036.68
 U, KJ/KG        -3330.33 -3439.86 -4386.44 -9245.42
 G, KJ/KG        -64170.0 -63917.8 -61333.7 -42468.5
 S, KJ/(KG)(K)    18.6436  18.6780  18.6780  18.6780

 M, (1/n)          12.354   12.360   12.449   12.680
 (dLV/dLP)t      -1.01369 -1.01343 -1.00959 -1.00007
 (dLV/dLT)p        1.2483   1.2455   1.1854   1.0021
 Cp, KJ/(KG)(K)    7.1062   7.0868   6.4175   3.5844
 GAMMAs            1.1546   1.1545   1.1583   1.2249
 SON VEL,M/SEC     1622.0   1615.1   1564.0   1216.8
 MACH NUMBER        0.000    0.314    1.000    3.072

 PERFORMANCE PARAMETERS

 Ae/At                      2.0000   1.0000   8.0000
 CSTAR, M/SEC               2358.0   2358.0   2358.0
 CF                         0.2150   0.6632   1.5851
 Ivac, M/SEC                4963.3   2914.2   4061.0
 Isp, M/SEC                  507.1   1563.9   3737.6

 MOLE FRACTIONS

 *H              2.5644-2 2.5361-2 1.9515-2 2.3005-4
 HO2             9.110 -6 8.346 -6 3.534 -6 1.946-11
 *H2             3.2570-1 3.2564-1 3.2644-1 3.3319-1
 H2O             6.2420-1 6.2515-1 6.3776-1 6.6654-1
 H2O2            4.949 -6 4.479 -6 2.060 -6 1.138-10
 *O              9.7743-4 9.4488-4 5.0999-4 1.7591-8
 *OH             2.2747-2 2.2191-2 1.5373-2 3.8264-5
 *O2             7.2457-4 7.0261-4 3.9015-4 1.5468-8
 O3              5.904-10 5.074-10 1.097-10 6.890-20

  * THERMODYNAMIC PROPERTIES FITTED TO 20000.K

 NOTE. WEIGHT FRACTION OF FUEL IN TOTAL FUELS AND OF OXIDANT IN TOTAL OXIDANTS

              THEORETICAL ROCKET PERFORMANCE ASSUMING EQUILIBRIUM

            COMPOSITION DURING EXPANSION FROM FINITE AREA COMBUSTOR

 Pin =  1469.6 PSIA
 Ac/At =  2.0000      Pinj/Pinf =  1.052687
 CASE = test___________

             REACTANT                    WT FRACTION      ENERGY      TEMP
                                          (SEE NOTE)     KJ/KG-MOL      K  
 FUEL        H2(L)                        1.0000000     -9012.000     20.270
 OXIDANT     O2(L)                        1.0000000    -12979.000     90.170

 O/F=    4.96043  %FUEL= 16.777322  R,EQ.RATIO= 1.600000  PHI,EQ.RATIO= 1.600000

                 INJECTOR  COMB END  THROAT     EXIT
 Pinj/P            1.0000   1.1144   1.8445   63.337
 P, BAR            101.33   90.922   54.935   1.5998
 T, K             3298.35  3271.43  3065.30  1718.41
 RHO, KG/CU M    4.3523 0 3.9393 0 2.5558 0 1.3453-1
 H, KJ/KG        -1087.59 -1219.63 -2342.31 -8163.60
 U, KJ/KG        -3415.68 -3527.70 -4491.73 -9352.77
 G, KJ/KG        -64411.5 -64145.2 -61303.0 -41217.1
 S, KJ/(KG)(K)    19.1987  19.2349  19.2349  19.2349

 M, (1/n)          11.780   11.785   11.857   12.015
 (dLV/dLP)t      -1.01020 -1.00998 -1.00677 -1.00002
 (dLV/dLT)p        1.1883   1.1854   1.1334   1.0008
 Cp, KJ/(KG)(K)    6.6597   6.6339   5.9953   3.6265
 GAMMAs            1.1620   1.1621   1.1675   1.2362
 SON VEL,M/SEC     1644.8   1637.7   1584.1   1212.5
 MACH NUMBER        0.000    0.314    1.000    3.103

 PERFORMANCE PARAMETERS

 Ae/At                      2.0000   1.0000   8.0000
 CSTAR, M/SEC               2377.4   2377.4   2377.4
 CF                         0.2162   0.6663   1.5824
 Ivac, M/SEC                5005.3   2941.0   4078.0
 Isp, M/SEC                  513.9   1584.1   3761.9

 MOLE FRACTIONS

 *H              2.1887-2 2.1563-2 1.5744-2 8.4764-5
 HO2             4.306 -6 3.906 -6 1.447 -6 1.295-12
 *H2             3.6571-1 3.6576-1 3.6764-1 3.7494-1
 H2O             5.9587-1 5.9666-1 6.0643-1 6.2496-1
 H2O2            2.850 -6 2.561 -6 1.067 -6 1.606-11
 *O              5.1530-4 4.9351-4 2.3476-4 1.3705-9
 *OH             1.5680-2 1.5214-2 9.7985-3 8.8281-6
 *O2             3.2626-4 3.1330-4 1.5251-4 1.0228-9
 O3              1.504-10 1.271-10 2.173-11 5.760-22

  * THERMODYNAMIC PROPERTIES FITTED TO 20000.K

 NOTE. WEIGHT FRACTION OF FUEL IN TOTAL FUELS AND OF OXIDANT IN TOTAL OXIDANTS

              THEORETICAL ROCKET PERFORMANCE ASSUMING EQUILIBRIUM

            COMPOSITION DURING EXPANSION FROM FINITE AREA COMBUSTOR

 Pin =  1469.6 PSIA
 Ac/At =  2.0000      Pinj/Pinf =  1.052965
 CASE = test___________

             REACTANT                    WT FRACTION      ENERGY      TEMP
                                          (SEE NOTE)     KJ/KG-MOL      K  
 FUEL        H2(L)                        1.0000000     -9012.000     20.270
 OXIDANT     O2(L)                        1.0000000    -12979.000     90.170

 O/F=    4.66864  %FUEL= 17.640925  R,EQ.RATIO= 1.700000  PHI,EQ.RATIO= 1.700000

                 INJECTOR  COMB END  THROAT     EXIT
 Pinj/P            1.0000   1.1150   1.8510   65.129
 P, BAR            101.33   90.871   54.740   1.5558
 T, K             3209.03  3181.82  2967.63  1607.64
 RHO, KG/CU M    4.2752 0 3.8684 0 2.5113 0 1.3300-1
 H, KJ/KG        -1122.69 -1257.82 -2405.22 -8267.16
 U, KJ/KG        -3492.75 -3606.87 -4584.95 -9436.90
 G, KJ/KG        -64446.7 -64166.2 -61078.9 -40052.1
 S, KJ/(KG)(K)    19.7331  19.7712  19.7712  19.7712

 M, (1/n)          11.258   11.262   11.320   11.427
 (dLV/dLP)t      -1.00762 -1.00742 -1.00478 -1.00001
 (dLV/dLT)p        1.1431   1.1404   1.0962   1.0003
 Cp, KJ/(KG)(K)    6.3202   6.2904   5.6933   3.6798
 GAMMAs            1.1697   1.1699   1.1768   1.2466
 SON VEL,M/SEC     1665.0   1657.7   1601.6   1207.6
 MACH NUMBER        0.000    0.314    1.000    3.130

 PERFORMANCE PARAMETERS

 Ae/At                      2.0000   1.0000   8.0000
 CSTAR, M/SEC               2392.5   2392.5   2392.5
 CF                         0.2173   0.6694   1.5800
 Ivac, M/SEC                5038.4   2962.6   4089.5
 Isp, M/SEC                  519.9   1601.6   3780.1

 MOLE FRACTIONS

 *H              1.8174-2 1.7828-2 1.2304-2 3.0352-5
 HO2             2.014 -6 1.807 -6 5.834 -7 8.678-14
 *H2             4.0247-1 4.0258-1 4.0504-1 4.1174-1
 H2O             5.6827-1 5.6890-1 5.7634-1 5.8822-1
 H2O2            1.626 -6 1.449 -6 5.465 -7 2.286-12
 *O              2.664 -4 2.526 -4 1.054 -4 1.056-10
 *OH             1.0671-2 1.0293-2 6.1465-3 2.0232-6
 *O2             1.469 -4 1.396 -4 5.941 -5 6.885-11
 O3              3.791-11 3.143-11 4.232-12 4.917-24

  * THERMODYNAMIC PROPERTIES FITTED TO 20000.K

 NOTE. WEIGHT FRACTION OF FUEL IN TOTAL FUELS AND OF OXIDANT IN TOTAL OXIDANTS

              THEORETICAL ROCKET PERFORMANCE ASSUMING EQUILIBRIUM

            COMPOSITION DURING EXPANSION FROM FINITE AREA COMBUSTOR

 Pin =  1469.6 PSIA
 Ac/At =  2.0000      Pinj/Pinf =  1.053241
 CASE = test___________

             REACTANT                    WT FRACTION      ENERGY      TEMP
                                          (SEE NOTE)     KJ/KG-MOL      K  
 FUEL        H2(L)                        1.0000000     -9012.000     20.270
 OXIDANT     O2(L)                        1.0000000    -12979.000     90.170

 O/F=    4.40927  %FUEL= 18.486789  R,EQ.RATIO= 1.800000  PHI,EQ.RATIO= 1.800000

                 INJECTOR  COMB END  THROAT     EXIT
 Pinj/P            1.0000   1.1157   1.8575   66.790
 P, BAR            101.33   90.819   54.549   1.5171
 T, K             3119.43  3091.97  2870.98  1508.91
 RHO, KG/CU M    4.2124 0 3.8104 0 2.4752 0 1.3186-1
 H, KJ/KG        -1157.08 -1294.93 -2463.85 -8351.98
 U, KJ/KG        -3562.50 -3678.37 -4667.63 -9502.52
 G, KJ/KG        -64319.7 -64025.2 -60710.7 -38965.0
 S, KJ/(KG)(K)    20.2481  20.2881  20.2881  20.2881

 M, (1/n)          10.783   10.786   10.832   10.904
 (dLV/dLP)t      -1.00569 -1.00552 -1.00337 -1.00000
 (dLV/dLT)p        1.1089   1.1065   1.0694   1.0001
 Cp, KJ/(KG)(K)    6.0644   6.0324   5.4809   3.7366
 GAMMAs            1.1774   1.1778   1.1859   1.2564
 SON VEL,M/SEC     1682.9   1675.4   1616.6   1202.3
 MACH NUMBER        0.000    0.313    1.000    3.155

 PERFORMANCE PARAMETERS

 Ae/At                      2.0000   1.0000   8.0000
 CSTAR, M/SEC               2404.1   2404.1   2404.1
 CF                         0.2184   0.6724   1.5779
 Ivac, M/SEC                5064.2   2979.8   4096.7
 Isp, M/SEC                  525.1   1616.6   3793.4

 MOLE FRACTIONS

 *H              1.4764-2 1.4416-2 9.3784-3 1.0610-5
 HO2             9.344 -7 8.289 -7 2.327 -7 5.798-15
 *H2             4.3596-1 4.3612-1 4.3879-1 4.4444-1
 H2O             5.4188-1 5.4238-1 5.4795-1 5.5555-1
 H2O2            9.214 -7 8.144 -7 2.773 -7 3.259-13
 *O              1.356 -4 1.272 -4 4.637 -5 8.014-12
 *OH             7.1904-3 6.8927-3 3.8087-3 4.5938-7
 *O2             6.617 -5 6.219 -5 2.309 -5 4.659-12
 O3              9.489-12 7.714-12 8.144-13 4.201-26

  * THERMODYNAMIC PROPERTIES FITTED TO 20000.K

 NOTE. WEIGHT FRACTION OF FUEL IN TOTAL FUELS AND OF OXIDANT IN TOTAL OXIDANTS

              THEORETICAL ROCKET PERFORMANCE ASSUMING EQUILIBRIUM

            COMPOSITION DURING EXPANSION FROM FINITE AREA COMBUSTOR

 Pin =  1469.6 PSIA
 Ac/At =  2.0000      Pinj/Pinf =  1.053508
 CASE = test___________

             REACTANT                    WT FRACTION      ENERGY      TEMP
                                          (SEE NOTE)     KJ/KG-MOL      K  
 FUEL        H2(L)                        1.0000000     -9012.000     20.270
 OXIDANT     O2(L)                        1.0000000    -12979.000     90.170

 O/F=    4.17720  %FUEL= 19.315455  R,EQ.RATIO= 1.900000  PHI,EQ.RATIO= 1.900000

                 INJECTOR  COMB END  THROAT     EXIT
 Pinj/P            1.0000   1.1163   1.8637   68.344
 P, BAR            101.33   90.770   54.368   1.4826
 T, K             3030.81  3003.15  2776.68  1420.38
 RHO, KG/CU M    4.1612 0 3.7632 0 2.4462 0 1.3102-1
 H, KJ/KG        -1190.76 -1331.01 -2518.42 -8421.53
 U, KJ/KG        -3625.75 -3743.07 -4740.96 -9553.10
 G, KJ/KG        -64064.7 -63756.8 -60236.7 -37946.6
 S, KJ/(KG)(K)    20.7449  20.7868  20.7868  20.7868

 M, (1/n)          10.349   10.352   10.388   10.437
 (dLV/dLP)t      -1.00425 -1.00410 -1.00237 -1.00000
 (dLV/dLT)p        1.0829   1.0807   1.0499   1.0000
 Cp, KJ/(KG)(K)    5.8740   5.8410   5.3362   3.7942
 GAMMAs            1.1851   1.1855   1.1947   1.2658
 SON VEL,M/SEC     1698.7   1691.0   1629.5   1196.8
 MACH NUMBER        0.000    0.313    1.000    3.177

 PERFORMANCE PARAMETERS

 Ae/At                      2.0000   1.0000   8.0000
 CSTAR, M/SEC               2412.8   2412.8   2412.8
 CF                         0.2195   0.6753   1.5761
 Ivac, M/SEC                5083.9   2993.4   4100.4
 Isp, M/SEC                  529.6   1629.5   3802.8

 MOLE FRACTIONS

 *H              1.1783-2 1.1448-2 7.0090-3 3.6290-6
 HO2             4.309 -7 3.777 -7 9.202 -8 3.833-16
 *H2             4.6635-1 4.6653-1 4.6916-1 4.7368-1
 H2O             5.1696-1 5.1735-1 5.2146-1 5.2631-1
 H2O2            5.196 -7 4.553 -7 1.399 -7 4.625-14
 *O              6.816 -5 6.319 -5 2.009 -5 5.955-13
 *OH             4.8072-3 4.5780-3 2.3380-3 1.0308-7
 *O2             2.982 -5 2.771 -5 8.963 -6 3.138-13
 O3              2.363-12 1.882-12 1.555-13 3.537-28

  * THERMODYNAMIC PROPERTIES FITTED TO 20000.K

 NOTE. WEIGHT FRACTION OF FUEL IN TOTAL FUELS AND OF OXIDANT IN TOTAL OXIDANTS

              THEORETICAL ROCKET PERFORMANCE ASSUMING EQUILIBRIUM

            COMPOSITION DURING EXPANSION FROM FINITE AREA COMBUSTOR

 Pin =  1469.6 PSIA
 Ac/At =  2.0000      Pinj/Pinf =  1.053765
 CASE = test___________

             REACTANT                    WT FRACTION      ENERGY      TEMP
                                          (SEE NOTE)     KJ/KG-MOL      K  
 FUEL        H2(L)                        1.0000000     -9012.000     20.270
 OXIDANT     O2(L)                        1.0000000    -12979.000     90.170

 O/F=    3.96834  %FUEL= 20.127441  R,EQ.RATIO= 2.000000  PHI,EQ.RATIO= 2.000000

                 INJECTOR  COMB END  THROAT     EXIT
 Pinj/P            1.0000   1.1169   1.8696   69.804
 P, BAR            101.33   90.722   54.197   1.4516
 T, K             2944.04  2916.22  2685.57  1340.56
 RHO, KG/CU M    4.1198 0 3.7248 0 2.4229 0 1.3043-1
 H, KJ/KG        -1223.77 -1366.10 -2569.28 -8478.39
 U, KJ/KG        -3683.23 -3801.71 -4806.12 -9591.27
 G, KJ/KG        -63709.3 -63388.6 -59686.4 -36989.6
 S, KJ/(KG)(K)    21.2244  21.2681  21.2681  21.2681

 M, (1/n)           9.953    9.955    9.982   10.016
 (dLV/dLP)t      -1.00316 -1.00304 -1.00166 -1.00000
 (dLV/dLT)p        1.0631   1.0611   1.0358   1.0000
 Cp, KJ/(KG)(K)    5.7355   5.7024   5.2435   3.8517
 GAMMAs            1.1925   1.1931   1.2031   1.2748
 SON VEL,M/SEC     1712.6   1704.7   1640.4   1191.1
 MACH NUMBER        0.000    0.313    1.000    3.198

 PERFORMANCE PARAMETERS

 Ae/At                      2.0000   1.0000   8.0000
 CSTAR, M/SEC               2419.2   2419.2   2419.2
 CF                         0.2205   0.6781   1.5745
 Ivac, M/SEC                5098.5   3004.0   4101.3
 Isp, M/SEC                  533.5   1640.4   3809.1

 MOLE FRACTIONS

 *H              9.2684-3 8.9580-3 5.1569-3 1.2164-6
 HO2             1.978 -7 1.712 -7 3.619 -8 2.496-17
 *H2             4.9388-1 4.9407-1 4.9650-1 5.0000-1
 H2O             4.9361-1 4.9391-1 4.9691-1 5.0000-1
 H2O2            2.920 -7 2.536 -7 7.030 -8 6.514-15
 *O              3.390 -5 3.106 -5 8.597 -6 4.321-14
 *OH             3.1935-3 3.0206-3 1.4250-3 2.2820-8
 *O2             1.344 -5 1.234 -5 3.477 -6 2.092-14
 O3              5.867-13 4.575-13 2.957-14 2.907-30

  * THERMODYNAMIC PROPERTIES FITTED TO 20000.K

 NOTE. WEIGHT FRACTION OF FUEL IN TOTAL FUELS AND OF OXIDANT IN TOTAL OXIDANTS

              THEORETICAL ROCKET PERFORMANCE ASSUMING EQUILIBRIUM

            COMPOSITION DURING EXPANSION FROM FINITE AREA COMBUSTOR

 Pin =  1469.6 PSIA
 Ac/At =  2.0000      Pinj/Pinf =  1.054009
 CASE = test___________

             REACTANT                    WT FRACTION      ENERGY      TEMP
                                          (SEE NOTE)     KJ/KG-MOL      K  
 FUEL        H2(L)                        1.0000000     -9012.000     20.270
 OXIDANT     O2(L)                        1.0000000    -12979.000     90.170

 O/F=    3.77937  %FUEL= 20.923248  R,EQ.RATIO= 2.100000  PHI,EQ.RATIO= 2.100000

                 INJECTOR  COMB END  THROAT     EXIT
 Pinj/P            1.0000   1.1174   1.8750   71.194
 P, BAR            101.33   90.677   54.039   1.4232
 T, K             2859.69  2831.77  2598.16  1268.20
 RHO, KG/CU M    4.0866 0 3.6939 0 2.4045 0 1.3004-1
 H, KJ/KG        -1256.12 -1400.25 -2616.74 -8524.78
 U, KJ/KG        -3735.58 -3854.99 -4864.10 -9619.22
 G, KJ/KG        -63275.7 -62943.2 -59082.8 -36086.8
 S, KJ/(KG)(K)    21.6875  21.7331  21.7331  21.7331

 M, (1/n)           9.590    9.592    9.612    9.635
 (dLV/dLP)t      -1.00235 -1.00225 -1.00116 -1.00000
 (dLV/dLT)p        1.0479   1.0462   1.0257   1.0000
 Cp, KJ/(KG)(K)    5.6387   5.6061   5.1909   3.9092
 GAMMAs            1.1998   1.2005   1.2109   1.2833
 SON VEL,M/SEC     1724.8   1716.6   1649.6   1185.1
 MACH NUMBER        0.000    0.313    1.000    3.217

 PERFORMANCE PARAMETERS

 Ae/At                      2.0000   1.0000   8.0000
 CSTAR, M/SEC               2423.6   2423.6   2423.6
 CF                         0.2215   0.6807   1.5732
 Ivac, M/SEC                5108.9   3012.0   4099.8
 Isp, M/SEC                  536.9   1649.6   3812.8

 MOLE FRACTIONS

 *H              7.2040-3 6.9251-3 3.7478-3 3.9973-7
 HO2             9.043 -8 7.730 -8 1.418 -8 1.592-18
 *H2             5.1884-1 5.1902-1 5.2116-1 5.2381-1
 H2O             4.7182-1 4.7205-1 4.7422-1 4.7619-1
 H2O2            1.637 -7 1.408 -7 3.526 -8 9.066-16
 *O              1.671 -5 1.513 -5 3.646 -6 3.050-15
 *OH             2.1108-3 1.9824-3 8.6392-4 4.9750-9
 *O2             6.065 -6 5.501 -6 1.350 -6 1.371-15
 O3              1.454-13 1.109-13 5.612-15 2.310-32

  * THERMODYNAMIC PROPERTIES FITTED TO 20000.K

 NOTE. WEIGHT FRACTION OF FUEL IN TOTAL FUELS AND OF OXIDANT IN TOTAL OXIDANTS

              THEORETICAL ROCKET PERFORMANCE ASSUMING EQUILIBRIUM

            COMPOSITION DURING EXPANSION FROM FINITE AREA COMBUSTOR

 Pin =  1469.6 PSIA
 Ac/At =  2.0000      Pinj/Pinf =  1.054237
 CASE = test___________

             REACTANT                    WT FRACTION      ENERGY      TEMP
                                          (SEE NOTE)     KJ/KG-MOL      K  
 FUEL        H2(L)                        1.0000000     -9012.000     20.270
 OXIDANT     O2(L)                        1.0000000    -12979.000     90.170

 O/F=    3.60758  %FUEL= 21.703353  R,EQ.RATIO= 2.200000  PHI,EQ.RATIO= 2.200000

                 INJECTOR  COMB END  THROAT     EXIT
 Pinj/P            1.0000   1.1180   1.8801   72.521
 P, BAR            101.33   90.635   53.892   1.3972
 T, K             2778.15  2750.18  2514.73  1202.35
 RHO, KG/CU M    4.0602 0 3.6694 0 2.3902 0 1.2981-1
 H, KJ/KG        -1287.83 -1433.50 -2661.09 -8562.28
 U, KJ/KG        -3783.39 -3903.51 -4915.80 -9638.58
 G, KJ/KG        -62782.0 -62439.0 -58443.8 -35233.3
 S, KJ/(KG)(K)    22.1349  22.1824  22.1824  22.1824

 M, (1/n)           9.256    9.258    9.273    9.288
 (dLV/dLP)t      -1.00174 -1.00166 -1.00081 -1.00000
 (dLV/dLT)p        1.0364   1.0349   1.0184   1.0000
 Cp, KJ/(KG)(K)    5.5757   5.5440   5.1693   3.9671
 GAMMAs            1.2067   1.2075   1.2181   1.2914
 SON VEL,M/SEC     1735.3   1727.0   1657.3   1179.0
 MACH NUMBER        0.000    0.313    1.000    3.235

 PERFORMANCE PARAMETERS

 Ae/At                      2.0000   1.0000   8.0000
 CSTAR, M/SEC               2426.3   2426.3   2426.3
 CF                         0.2225   0.6830   1.5721
 Ivac, M/SEC                5115.8   3017.8   4096.5
 Isp, M/SEC                  539.8   1657.3   3814.3

 MOLE FRACTIONS

 *H              5.5448-3 5.3006-3 2.6974-3 1.2892-7
 HO2             4.125 -8 3.481 -8 5.548 -9 9.925-20
 *H2             5.4149-1 5.4166-1 5.4349-1 5.4545-1
 H2O             4.5156-1 4.5173-1 4.5329-1 4.5455-1
 H2O2            9.165 -8 7.811 -8 1.767 -8 1.245-16
 *O              8.181 -6 7.313 -6 1.536 -6 2.093-16
 *OH             1.3895-3 1.2957-3 5.2183-4 1.0675-9
 *O2             2.738 -6 2.453 -6 5.246 -7 8.821-17
 O3              3.599-14 2.686-14 1.066-15 1.768-34

  * THERMODYNAMIC PROPERTIES FITTED TO 20000.K

 NOTE. WEIGHT FRACTION OF FUEL IN TOTAL FUELS AND OF OXIDANT IN TOTAL OXIDANTS

              THEORETICAL ROCKET PERFORMANCE ASSUMING EQUILIBRIUM

            COMPOSITION DURING EXPANSION FROM FINITE AREA COMBUSTOR

 Pin =  1469.6 PSIA
 Ac/At =  2.0000      Pinj/Pinf =  1.054451
 CASE = test___________

             REACTANT                    WT FRACTION      ENERGY      TEMP
                                          (SEE NOTE)     KJ/KG-MOL      K  
 FUEL        H2(L)                        1.0000000     -9012.000     20.270
 OXIDANT     O2(L)                        1.0000000    -12979.000     90.170

 O/F=    3.45073  %FUEL= 22.468216  R,EQ.RATIO= 2.300000  PHI,EQ.RATIO= 2.300000

                 INJECTOR  COMB END  THROAT     EXIT
 Pinj/P            1.0000   1.1184   1.8848   73.793
 P, BAR            101.33   90.595   53.758   1.3731
 T, K             2699.65  2671.68  2435.37  1142.19
 RHO, KG/CU M    4.0397 0 3.6502 0 2.3793 0 1.2972-1
 H, KJ/KG        -1318.92 -1465.90 -2702.64 -8592.21
 U, KJ/KG        -3827.15 -3947.81 -4962.03 -9650.68
 G, KJ/KG        -62243.4 -61890.9 -57782.9 -34425.0
 S, KJ/(KG)(K)    22.5676  22.6168  22.6168  22.6168

 M, (1/n)           8.949    8.950    8.962    8.972
 (dLV/dLP)t      -1.00129 -1.00122 -1.00056 -1.00000
 (dLV/dLT)p        1.0275   1.0263   1.0131   1.0000
 Cp, KJ/(KG)(K)    5.5400   5.5095   5.1712   4.0257
 GAMMAs            1.2133   1.2141   1.2249   1.2990
 SON VEL,M/SEC     1744.5   1735.9   1663.6   1172.6
 MACH NUMBER        0.000    0.312    1.000    3.253

 PERFORMANCE PARAMETERS

 Ae/At                      2.0000   1.0000   8.0000
 CSTAR, M/SEC               2427.7   2427.7   2427.7
 CF                         0.2233   0.6852   1.5710
 Ivac, M/SEC                5119.9   3021.7   4091.5
 Isp, M/SEC                  542.2   1663.6   3814.0

 MOLE FRACTIONS

 *H              4.2335-3 4.0242-3 1.9267-3 4.0847-8
 HO2             1.878 -8 1.564 -8 2.170 -9 6.043-21
 *H2             5.6211-1 5.6225-1 5.6378-1 5.6522-1
 H2O             4.3274-1 4.3287-1 4.3398-1 4.3478-1
 H2O2            5.127 -8 4.328 -8 8.865 -9 1.685-17
 *O              3.983 -6 3.515 -6 6.439 -7 1.396-17
 *OH             9.119 -4 8.441 -4 3.144 -4 2.254-10
 *O2             1.238 -6 1.095 -6 2.044 -7 5.557-18
 O3              8.916-15 6.505-15 2.031-16 1.300-36

  * THERMODYNAMIC PROPERTIES FITTED TO 20000.K

 NOTE. WEIGHT FRACTION OF FUEL IN TOTAL FUELS AND OF OXIDANT IN TOTAL OXIDANTS

              THEORETICAL ROCKET PERFORMANCE ASSUMING EQUILIBRIUM

            COMPOSITION DURING EXPANSION FROM FINITE AREA COMBUSTOR

 Pin =  1469.6 PSIA
 Ac/At =  2.0000      Pinj/Pinf =  1.054648
 CASE = test___________

             REACTANT                    WT FRACTION      ENERGY      TEMP
                                          (SEE NOTE)     KJ/KG-MOL      K  
 FUEL        H2(L)                        1.0000000     -9012.000     20.270
 OXIDANT     O2(L)                        1.0000000    -12979.000     90.170

 O/F=    3.30695  %FUEL= 23.218281  R,EQ.RATIO= 2.400000  PHI,EQ.RATIO= 2.400000

                 INJECTOR  COMB END  THROAT     EXIT
 Pinj/P            1.0000   1.1189   1.8892   75.017
 P, BAR            101.33   90.559   53.634   1.3507
 T, K             2624.30  2596.40  2360.04  1087.07
 RHO, KG/CU M    4.0241 0 3.6356 0 2.3713 0 1.2975-1
 H, KJ/KG        -1349.41 -1497.48 -2741.65 -8615.60
 U, KJ/KG        -3867.35 -3988.37 -5003.48 -9656.63
 G, KJ/KG        -61671.7 -61311.1 -57110.1 -33658.6
 S, KJ/(KG)(K)    22.9860  23.0371  23.0371  23.0371

 M, (1/n)           8.666    8.667    8.676    8.682
 (dLV/dLP)t      -1.00095 -1.00090 -1.00039 -1.00000
 (dLV/dLT)p        1.0208   1.0198   1.0093   1.0000
 Cp, KJ/(KG)(K)    5.5263   5.4972   5.1908   4.0855
 GAMMAs            1.2195   1.2204   1.2311   1.3062
 SON VEL,M/SEC     1752.3   1743.5   1668.7   1166.1
 MACH NUMBER        0.000    0.312    1.000    3.269

 PERFORMANCE PARAMETERS

 Ae/At                      2.0000   1.0000   8.0000
 CSTAR, M/SEC               2428.0   2428.0   2428.0
 CF                         0.2241   0.6873   1.5701
 Ivac, M/SEC                5121.4   3024.1   4085.2
 Isp, M/SEC                  544.2   1668.7   3812.1

 MOLE FRACTIONS

 *H              3.2112-3 3.0350-3 1.3680-3 1.2727-8
 HO2             8.547 -9 7.026 -9 8.492-10 3.593-22
 *H2             5.8092-1 5.8105-1 5.8229-1 5.8333-1
 H2O             4.1527-1 4.1537-1 4.1615-1 4.1667-1
 H2O2            2.869 -8 2.399 -8 4.453 -9 2.248-18
 *O              1.931 -6 1.682 -6 2.692 -7 9.050-19
 *OH             5.971 -4 5.487 -4 1.892 -4 4.685-11
 *O2             5.604 -7 4.893 -7 7.985 -8 3.427-19
 O3              2.212-15 1.578-15 3.885-17 0.000  0

  * THERMODYNAMIC PROPERTIES FITTED TO 20000.K

 NOTE. WEIGHT FRACTION OF FUEL IN TOTAL FUELS AND OF OXIDANT IN TOTAL OXIDANTS

              THEORETICAL ROCKET PERFORMANCE ASSUMING EQUILIBRIUM

            COMPOSITION DURING EXPANSION FROM FINITE AREA COMBUSTOR

 Pin =  1469.6 PSIA
 Ac/At =  2.0000      Pinj/Pinf =  1.054832
 CASE = test___________

             REACTANT                    WT FRACTION      ENERGY      TEMP
                                          (SEE NOTE)     KJ/KG-MOL      K  
 FUEL        H2(L)                        1.0000000     -9012.000     20.270
 OXIDANT     O2(L)                        1.0000000    -12979.000     90.170

 O/F=    3.17467  %FUEL= 23.953971  R,EQ.RATIO= 2.500000  PHI,EQ.RATIO= 2.500000

                 INJECTOR  COMB END  THROAT     EXIT
 Pinj/P            1.0000   1.1193   1.8932   76.195
 P, BAR            101.33   90.525   53.520   1.3298
 T, K             2552.16  2524.37  2288.63  1036.43
 RHO, KG/CU M    4.0128 0 3.6249 0 2.3657 0 1.2987-1
 H, KJ/KG        -1379.31 -1528.29 -2778.40 -8633.35
 U, KJ/KG        -3904.36 -4025.62 -5040.75 -9657.32
 G, KJ/KG        -61076.9 -60709.2 -56432.6 -32931.1
 S, KJ/(KG)(K)    23.3910  23.4438  23.4438  23.4438

 M, (1/n)           8.404    8.405    8.411    8.416
 (dLV/dLP)t      -1.00070 -1.00066 -1.00027 -1.00000
 (dLV/dLT)p        1.0157   1.0148   1.0066   1.0000
 Cp, KJ/(KG)(K)    5.5304   5.5026   5.2237   4.1471
 GAMMAs            1.2253   1.2262   1.2368   1.3127
 SON VEL,M/SEC     1758.9   1750.0   1672.8   1159.4
 MACH NUMBER        0.000    0.312    1.000    3.285

 PERFORMANCE PARAMETERS

 Ae/At                      2.0000   1.0000   8.0000
 CSTAR, M/SEC               2427.4   2427.4   2427.4
 CF                         0.2249   0.6891   1.5692
 Ivac, M/SEC                5120.9   3025.2   4077.8
 Isp, M/SEC                  545.9   1672.8   3808.9

 MOLE FRACTIONS

 *H              2.4227-3 2.2767-3 9.6683-4 3.9048-9
 HO2             3.890 -9 3.155 -9 3.329-10 2.087-23
 *H2             5.9814-1 5.9825-1 5.9925-1 6.0000-1
 H2O             3.9905-1 3.9912-1 3.9967-1 4.0000-1
 H2O2            1.606 -8 1.330 -8 2.242 -9 2.957-19
 *O              9.331 -7 8.024 -7 1.123 -7 5.713-20
 *OH             3.903 -4 3.560 -4 1.137 -4 9.593-12
 *O2             2.542 -7 2.191 -7 3.130 -8 2.071-20
 O3              5.504-16 3.837-16 7.470-18 0.000  0

  * THERMODYNAMIC PROPERTIES FITTED TO 20000.K

 NOTE. WEIGHT FRACTION OF FUEL IN TOTAL FUELS AND OF OXIDANT IN TOTAL OXIDANTS

              THEORETICAL ROCKET PERFORMANCE ASSUMING EQUILIBRIUM

            COMPOSITION DURING EXPANSION FROM FINITE AREA COMBUSTOR

 Pin =  1469.6 PSIA
 Ac/At =  2.0000      Pinj/Pinf =  1.055003
 CASE = test___________

             REACTANT                    WT FRACTION      ENERGY      TEMP
                                          (SEE NOTE)     KJ/KG-MOL      K  
 FUEL        H2(L)                        1.0000000     -9012.000     20.270
 OXIDANT     O2(L)                        1.0000000    -12979.000     90.170

 O/F=    3.05257  %FUEL= 24.675698  R,EQ.RATIO= 2.600000  PHI,EQ.RATIO= 2.600000

                 INJECTOR  COMB END  THROAT     EXIT
 Pinj/P            1.0000   1.1197   1.8969   77.329
 P, BAR            101.33   90.493   53.415   1.3103
 T, K             2483.20  2455.56  2220.97   989.79
 RHO, KG/CU M    4.0051 0 3.6175 0 2.3622 0 1.3007-1
 H, KJ/KG        -1408.65 -1558.37 -2813.12 -8646.14
 U, KJ/KG        -3938.56 -4059.94 -5074.36 -9653.50
 G, KJ/KG        -60466.6 -60093.0 -55755.7 -32240.4
 S, KJ/(KG)(K)    23.7830  23.8376  23.8376  23.8376

 M, (1/n)           8.161    8.162    8.166    8.169
 (dLV/dLP)t      -1.00052 -1.00048 -1.00019 -1.00000
 (dLV/dLT)p        1.0118   1.0111   1.0047   1.0000
 Cp, KJ/(KG)(K)    5.5485   5.5220   5.2660   4.2101
 GAMMAs            1.2307   1.2317   1.2422   1.3188
 SON VEL,M/SEC     1764.6   1755.4   1676.0   1152.6
 MACH NUMBER        0.000    0.312    1.000    3.301

 PERFORMANCE PARAMETERS

 Ae/At                      2.0000   1.0000   8.0000
 CSTAR, M/SEC               2425.9   2425.9   2425.9
 CF                         0.2256   0.6909   1.5683
 Ivac, M/SEC                5118.7   3025.2   4069.4
 Isp, M/SEC                  547.2   1676.0   3804.6

 MOLE FRACTIONS

 *H              1.8199-3 1.7004-3 6.8076-4 1.1814-9
 HO2             1.772 -9 1.418 -9 1.308-10 1.188-24
 *H2             6.1396-1 6.1406-1 6.1485-1 6.1538-1
 H2O             3.8396-1 3.8401-1 3.8440-1 3.8462-1
 H2O2            9.003 -9 7.386 -9 1.131 -9 3.838-20
 *O              4.499 -7 3.819 -7 4.683 -8 3.519-21
 *OH             2.549 -4 2.308 -4 6.835 -5 1.938-12
 *O2             1.155 -7 9.831 -8 1.231 -8 1.228-21
 O3              1.374-16 9.363-17 1.445-18 0.000  0

  * THERMODYNAMIC PROPERTIES FITTED TO 20000.K

 NOTE. WEIGHT FRACTION OF FUEL IN TOTAL FUELS AND OF OXIDANT IN TOTAL OXIDANTS

              THEORETICAL ROCKET PERFORMANCE ASSUMING EQUILIBRIUM

            COMPOSITION DURING EXPANSION FROM FINITE AREA COMBUSTOR

 Pin =  1469.6 PSIA
 Ac/At =  2.0000      Pinj/Pinf =  1.055162
 CASE = test___________

             REACTANT                    WT FRACTION      ENERGY      TEMP
                                          (SEE NOTE)     KJ/KG-MOL      K  
 FUEL        H2(L)                        1.0000000     -9012.000     20.270
 OXIDANT     O2(L)                        1.0000000    -12979.000     90.170

 O/F=    2.93951  %FUEL= 25.383854  R,EQ.RATIO= 2.700000  PHI,EQ.RATIO= 2.700000

                 INJECTOR  COMB END  THROAT     EXIT
 Pinj/P            1.0000   1.1201   1.9004   78.423
 P, BAR            101.33   90.464   53.316   1.2920
 T, K             2417.35  2389.89  2156.87   946.74
 RHO, KG/CU M    4.0005 0 3.6129 0 2.3605 0 1.3035-1
 H, KJ/KG        -1437.44 -1587.75 -2846.02 -8654.62
 U, KJ/KG        -3970.23 -4091.64 -5104.75 -9645.82
 G, KJ/KG        -59847.0 -59468.4 -55083.0 -31583.8
 S, KJ/(KG)(K)    24.1627  24.2189  24.2189  24.2189

 M, (1/n)           7.936    7.936    7.940    7.942
 (dLV/dLP)t      -1.00038 -1.00035 -1.00013 -1.00000
 (dLV/dLT)p        1.0089   1.0083   1.0034   1.0000
 Cp, KJ/(KG)(K)    5.5776   5.5523   5.3152   4.2731
 GAMMAs            1.2358   1.2369   1.2472   1.3245
 SON VEL,M/SEC     1769.2   1759.8   1678.4   1145.8
 MACH NUMBER        0.000    0.312    1.000    3.316

 PERFORMANCE PARAMETERS

 Ae/At                      2.0000   1.0000   8.0000
 CSTAR, M/SEC               2423.8   2423.8   2423.8
 CF                         0.2262   0.6925   1.5675
 Ivac, M/SEC                5115.0   3024.2   4060.2
 Isp, M/SEC                  548.3   1678.4   3799.3

 MOLE FRACTIONS

 *H              1.362 -3 1.266 -3 4.779 -4 3.528-10
 HO2             8.078-10 6.381-10 5.152-11 6.620-26
 *H2             6.2855-1 6.2863-1 6.2925-1 6.2963-1
 H2O             3.6992-1 3.6996-1 3.7023-1 3.7037-1
 H2O2            5.054 -9 4.107 -9 5.721-10 4.921-21
 *O              2.167 -7 1.815 -7 1.952 -8 2.118-22
 *OH             1.664 -4 1.495 -4 4.108 -5 3.864-13
 *O2             5.266 -8 4.423 -8 4.862 -9 7.145-23

  * THERMODYNAMIC PROPERTIES FITTED TO 20000.K

 NOTE. WEIGHT FRACTION OF FUEL IN TOTAL FUELS AND OF OXIDANT IN TOTAL OXIDANTS

              THEORETICAL ROCKET PERFORMANCE ASSUMING EQUILIBRIUM

            COMPOSITION DURING EXPANSION FROM FINITE AREA COMBUSTOR

 Pin =  1469.6 PSIA
 Ac/At =  2.0000      Pinj/Pinf =  1.055312
 CASE = test___________

             REACTANT                    WT FRACTION      ENERGY      TEMP
                                          (SEE NOTE)     KJ/KG-MOL      K  
 FUEL        H2(L)                        1.0000000     -9012.000     20.270
 OXIDANT     O2(L)                        1.0000000    -12979.000     90.170

 O/F=    2.83453  %FUEL= 26.078818  R,EQ.RATIO= 2.800000  PHI,EQ.RATIO= 2.800000

                 INJECTOR  COMB END  THROAT     EXIT
 Pinj/P            1.0000   1.1204   1.9037   79.476
 P, BAR            101.33   90.436   53.224   1.2749
 T, K             2354.49  2327.25  2096.10   906.93
 RHO, KG/CU M    3.9987 0 3.6109 0 2.3603 0 1.3069-1
 H, KJ/KG        -1465.69 -1616.46 -2877.27 -8659.28
 U, KJ/KG        -3999.66 -4121.01 -5132.29 -9634.79
 G, KJ/KG        -59222.7 -58840.1 -54417.2 -30959.2
 S, KJ/(KG)(K)    24.5305  24.5885  24.5885  24.5885

 M, (1/n)           7.726    7.726    7.729    7.730
 (dLV/dLP)t      -1.00028 -1.00026 -1.00009 -1.00000
 (dLV/dLT)p        1.0067   1.0063   1.0024   1.0000
 Cp, KJ/(KG)(K)    5.6152   5.5910   5.3690   4.3381
 GAMMAs            1.2406   1.2417   1.2519   1.3297
 SON VEL,M/SEC     1773.1   1763.5   1680.2   1138.9
 MACH NUMBER        0.000    0.311    1.000    3.330

 PERFORMANCE PARAMETERS

 Ae/At                      2.0000   1.0000   8.0000
 CSTAR, M/SEC               2421.1   2421.1   2421.1
 CF                         0.2268   0.6940   1.5667
 Ivac, M/SEC                5110.0   3022.3   4050.2
 Isp, M/SEC                  549.1   1680.2   3793.0

 MOLE FRACTIONS

 *H              1.017 -3 9.392 -4 3.347 -4 1.041-10
 HO2             3.690-10 2.876-10 2.034-11 3.623-27
 *H2             6.4204-1 6.4210-1 6.4259-1 6.4286-1
 H2O             3.5683-1 3.5686-1 3.5705-1 3.5714-1
 H2O2            2.843 -9 2.288 -9 2.902-10 6.237-22
 *O              1.043 -7 8.623 -8 8.135 -9 1.248-23
 *OH             1.086 -4 9.686 -5 2.470 -5 7.614-14
 *O2             2.406 -8 1.995 -8 1.926 -9 4.090-24

  * THERMODYNAMIC PROPERTIES FITTED TO 20000.K

 NOTE. WEIGHT FRACTION OF FUEL IN TOTAL FUELS AND OF OXIDANT IN TOTAL OXIDANTS

              THEORETICAL ROCKET PERFORMANCE ASSUMING EQUILIBRIUM

            COMPOSITION DURING EXPANSION FROM FINITE AREA COMBUSTOR

 Pin =  1469.6 PSIA
 Ac/At =  2.0000      Pinj/Pinf =  1.055452
 CASE = test___________

             REACTANT                    WT FRACTION      ENERGY      TEMP
                                          (SEE NOTE)     KJ/KG-MOL      K  
 FUEL        H2(L)                        1.0000000     -9012.000     20.270
 OXIDANT     O2(L)                        1.0000000    -12979.000     90.170

 O/F=    2.73679  %FUEL= 26.760957  R,EQ.RATIO= 2.900000  PHI,EQ.RATIO= 2.900000

                 INJECTOR  COMB END  THROAT     EXIT
 Pinj/P            1.0000   1.1207   1.9069   80.489
 P, BAR            101.33   90.410   53.137   1.2589
 T, K             2294.52  2267.52  2038.46   870.03
 RHO, KG/CU M    3.9992 0 3.6110 0 2.3614 0 1.3109-1
 H, KJ/KG        -1493.41 -1644.54 -2907.03 -8660.58
 U, KJ/KG        -4027.06 -4148.28 -5157.28 -9620.88
 G, KJ/KG        -58597.3 -58211.5 -53759.8 -30364.9
 S, KJ/(KG)(K)    24.8870  24.9466  24.9466  24.9466

 M, (1/n)           7.530    7.530    7.532    7.533
 (dLV/dLP)t      -1.00021 -1.00019 -1.00006 -1.00000
 (dLV/dLT)p        1.0051   1.0047   1.0017   1.0000
 Cp, KJ/(KG)(K)    5.6592   5.6359   5.4257   4.4046
 GAMMAs            1.2452   1.2462   1.2564   1.3344
 SON VEL,M/SEC     1776.2   1766.4   1681.4   1132.0
 MACH NUMBER        0.000    0.311    1.000    3.345

 PERFORMANCE PARAMETERS

 Ae/At                      2.0000   1.0000   8.0000
 CSTAR, M/SEC               2417.8   2417.8   2417.8
 CF                         0.2274   0.6954   1.5659
 Ivac, M/SEC                5103.8   3019.7   4039.7
 Isp, M/SEC                  549.8   1681.4   3786.1

 MOLE FRACTIONS

 *H              7.573 -4 6.954 -4 2.340 -4 3.043-11
 HO2             1.688-10 1.299-10 8.053-12 1.951-28
 *H2             6.5456-1 6.5461-1 6.5498-1 6.5517-1
 H2O             3.4461-1 3.4463-1 3.4477-1 3.4483-1
 H2O2            1.602 -9 1.278 -9 1.476-10 7.829-23
 *O              5.015 -8 4.094 -8 3.392 -9 7.221-25
 *OH             7.087 -5 6.275 -5 1.486 -5 1.485-14
 *O2             1.103 -8 9.025 -9 7.658-10 2.308-25

  * THERMODYNAMIC PROPERTIES FITTED TO 20000.K

 NOTE. WEIGHT FRACTION OF FUEL IN TOTAL FUELS AND OF OXIDANT IN TOTAL OXIDANTS

              THEORETICAL ROCKET PERFORMANCE ASSUMING EQUILIBRIUM

            COMPOSITION DURING EXPANSION FROM FINITE AREA COMBUSTOR

 Pin =  1469.6 PSIA
 Ac/At =  2.0000      Pinj/Pinf =  1.055584
 CASE = test___________

             REACTANT                    WT FRACTION      ENERGY      TEMP
                                          (SEE NOTE)     KJ/KG-MOL      K  
 FUEL        H2(L)                        1.0000000     -9012.000     20.270
 OXIDANT     O2(L)                        1.0000000    -12979.000     90.170

 O/F=    2.64556  %FUEL= 27.430621  R,EQ.RATIO= 3.000000  PHI,EQ.RATIO= 3.000000

                 INJECTOR  COMB END  THROAT     EXIT
 Pinj/P            1.0000   1.1210   1.9098   81.462
 P, BAR            101.33   90.386   53.055   1.2438
 T, K             2237.30  2210.54  1983.74   835.78
 RHO, KG/CU M    4.0018 0 3.6131 0 2.3637 0 1.3154-1
 H, KJ/KG        -1520.63 -1672.02 -2935.44 -8658.88
 U, KJ/KG        -4052.64 -4173.67 -5180.00 -9604.47
 G, KJ/KG        -57973.7 -57585.3 -53112.0 -29799.2
 S, KJ/(KG)(K)    25.2327  25.2939  25.2939  25.2939

 M, (1/n)           7.347    7.347    7.348    7.349
 (dLV/dLP)t      -1.00015 -1.00014 -1.00004 -1.00000
 (dLV/dLT)p        1.0038   1.0035   1.0012   1.0000
 Cp, KJ/(KG)(K)    5.7080   5.6855   5.4843   4.4721
 GAMMAs            1.2494   1.2505   1.2607   1.3387
 SON VEL,M/SEC     1778.6   1768.7   1682.1   1125.1
 MACH NUMBER        0.000    0.311    1.000    3.358

 PERFORMANCE PARAMETERS

 Ae/At                      2.0000   1.0000   8.0000
 CSTAR, M/SEC               2414.2   2414.2   2414.2
 CF                         0.2279   0.6968   1.5651
 Ivac, M/SEC                5096.7   3016.5   4028.7
 Isp, M/SEC                  550.2   1682.1   3778.4

 MOLE FRACTIONS

 *H              5.629 -4 5.140 -4 1.633 -4 8.812-12
 HO2             7.742-11 5.877-11 3.196-12 1.037-29
 *H2             6.6621-1 6.6625-1 6.6653-1 6.6667-1
 H2O             3.3319-1 3.3320-1 3.3330-1 3.3333-1
 H2O2            9.050-10 7.148-10 7.525-11 9.747-24
 *O              2.413 -8 1.944 -8 1.415 -9 4.112-26
 *OH             4.627 -5 4.066 -5 8.942 -6 2.872-15
 *O2             5.068 -9 4.095 -9 3.054-10 1.287-26

  * THERMODYNAMIC PROPERTIES FITTED TO 20000.K

 NOTE. WEIGHT FRACTION OF FUEL IN TOTAL FUELS AND OF OXIDANT IN TOTAL OXIDANTS