

         NASA-GLENN CHEMICAL EQUILIBRIUM PROGRAM CEA2, FEBRUARY 5, 2004
                   BY  BONNIE MCBRIDE AND SANFORD GORDON
      REFS: NASA RP-1311, PART I, 1994 AND NASA RP-1311, PART II, 1996

 *******************************************************************************

  
 ### CEA analysis performed on Tue 28-Mar-2023 03:11:09
  
 # Problem Type: "Rocket" (Infinite Area Combustor)
  
 prob case=test___________2410 ro frozen
  
 # Pressure (1 value):
 p,atm= 100
 # Supersonic Area Ratio (1 value):
 supar= 8
  
 # Equivalence based on Fuel/Oxid. wt ratio (Eq 9.19*) (10 values):
 phi= 3.1, 3.2, 3.3, 3.4, 3.5, 3.6, 3.7, 3.8, 3.9, 4
  
 # You selected the following fuels and oxidizers:
 reac
 fuel H2(L)            mole=100.0000
 oxid O2(L)            mole=100.0000
  
 # You selected these options for output:
 # short version of output
 output short
 # Proportions of any products will be expressed as Mole Fractions.
 # Heat will be expressed as siunits
 output siunits
 # Trace variable:
 output trace=1e-16
  
 # Input prepared by this script:/var/www/sites/cearun.grc.nasa.gov/cgi-bin/CEARU
 N/prepareInputFile.cgi
  
 ### IMPORTANT:  The following line is the end of your CEA input file!
 end

           THEORETICAL ROCKET PERFORMANCE ASSUMING FROZEN COMPOSITION

 Pin =  1469.6 PSIA
 CASE = test___________

             REACTANT                       MOLES         ENERGY      TEMP
                                                         KJ/KG-MOL      K
 FUEL        H2(L)                      100.0000000     -9012.000     20.270
 OXIDANT     O2(L)                      100.0000000    -12979.000     90.170

 O/F=    2.56022  %FUEL= 28.088150  R,EQ.RATIO= 3.100000  PHI,EQ.RATIO= 3.100000

                 CHAMBER   THROAT     EXIT
 Pinf/P            1.0000   1.8124   78.098
 P, BAR            101.33   55.906   1.2974
 T, K             2182.68  1929.77   802.40
 RHO, KG/CU M    4.0062 0 2.5001 0 1.3954-1
 H, KJ/KG        -1547.36 -2962.88 -8647.49
 U, KJ/KG        -4076.55 -5199.02 -9577.27
 G, KJ/KG        -57353.9 -52303.2 -29163.2
 S, KJ/(KG)(K)    25.5680  25.5680  25.5680

 M, (1/n)           7.175    7.175    7.175
 Cp, KJ/(KG)(K)    5.6754   5.5143   4.5395
 GAMMAs            1.2566   1.2660   1.3427
 SON VEL,M/SEC     1782.7   1682.6   1117.3
 MACH NUMBER        0.000    1.000    3.373

 PERFORMANCE PARAMETERS

 Ae/At                      1.0000   8.0000
 CSTAR, M/SEC               2408.7   2408.7
 CF                         0.6985   1.5645
 Ivac, M/SEC                3011.6   4015.1
 Isp, M/SEC                 1682.6   3768.3

 MOLE FRACTIONS

 *H              0.00042   HO2             0.00000   *H2             0.67707
 H2O             0.32248   H2O2            0.00000   *O              0.00000
 *OH             0.00003   *O2             0.00000

  * THERMODYNAMIC PROPERTIES FITTED TO 20000.K

           THEORETICAL ROCKET PERFORMANCE ASSUMING FROZEN COMPOSITION

 Pin =  1469.6 PSIA
 CASE = test___________

             REACTANT                       MOLES         ENERGY      TEMP
                                                         KJ/KG-MOL      K
 FUEL        H2(L)                      100.0000000     -9012.000     20.270
 OXIDANT     O2(L)                      100.0000000    -12979.000     90.170

 O/F=    2.48021  %FUEL= 28.733871  R,EQ.RATIO= 3.200000  PHI,EQ.RATIO= 3.200000

                 CHAMBER   THROAT     EXIT
 Pinf/P            1.0000   1.8146   78.923
 P, BAR            101.33   55.838   1.2838
 T, K             2130.51  1880.79   773.17
 RHO, KG/CU M    4.0123 0 2.5047 0 1.4009-1
 H, KJ/KG        -1573.61 -2988.83 -8642.45
 U, KJ/KG        -4098.96 -5218.17 -9558.91
 G, KJ/KG        -56739.4 -51688.4 -28662.2
 S, KJ/(KG)(K)    25.8932  25.8932  25.8932

 M, (1/n)           7.015    7.015    7.015
 Cp, KJ/(KG)(K)    5.7482   5.5815   4.6086
 GAMMAs            1.2598   1.2696   1.3463
 SON VEL,M/SEC     1783.6   1682.4   1110.8
 MACH NUMBER        0.000    1.000    3.385

 PERFORMANCE PARAMETERS

 Ae/At                      1.0000   8.0000
 CSTAR, M/SEC               2404.6   2404.6
 CF                         0.6997   1.5637
 Ivac, M/SEC                3007.5   4003.7
 Isp, M/SEC                 1682.4   3760.0

 MOLE FRACTIONS

 *H              0.00031   HO2             0.00000   *H2             0.68724
 H2O             0.31243   H2O2            0.00000   *O              0.00000
 *OH             0.00002   *O2             0.00000

  * THERMODYNAMIC PROPERTIES FITTED TO 20000.K

           THEORETICAL ROCKET PERFORMANCE ASSUMING FROZEN COMPOSITION

 Pin =  1469.6 PSIA
 CASE = test___________

             REACTANT                       MOLES         ENERGY      TEMP
                                                         KJ/KG-MOL      K
 FUEL        H2(L)                      100.0000000     -9012.000     20.270
 OXIDANT     O2(L)                      100.0000000    -12979.000     90.170

 O/F=    2.40506  %FUEL= 29.368098  R,EQ.RATIO= 3.300000  PHI,EQ.RATIO= 3.300000

                 CHAMBER   THROAT     EXIT
 Pinf/P            1.0000   1.8168   79.716
 P, BAR            101.33   55.771   1.2711
 T, K             2080.67  1834.04   745.81
 RHO, KG/CU M    4.0199 0 2.5102 0 1.4068-1
 H, KJ/KG        -1599.39 -3013.75 -8634.95
 U, KJ/KG        -4119.99 -5235.57 -9538.45
 G, KJ/KG        -56131.3 -51081.9 -28181.7
 S, KJ/(KG)(K)    26.2088  26.2088  26.2088

 M, (1/n)           6.863    6.863    6.863
 Cp, KJ/(KG)(K)    5.8186   5.6466   4.6779
 GAMMAs            1.2629   1.2731   1.3495
 SON VEL,M/SEC     1784.2   1681.9   1104.2
 MACH NUMBER        0.000    1.000    3.397

 PERFORMANCE PARAMETERS

 Ae/At                      1.0000   8.0000
 CSTAR, M/SEC               2400.1   2400.1
 CF                         0.7008   1.5629
 Ivac, M/SEC                3002.9   3992.0
 Isp, M/SEC                 1681.9   3751.1

 MOLE FRACTIONS

 *H              0.00023   HO2             0.00000   *H2             0.69678
 H2O             0.30298   H2O2            0.00000   *O              0.00000
 *OH             0.00001   *O2             0.00000

  * THERMODYNAMIC PROPERTIES FITTED TO 20000.K

           THEORETICAL ROCKET PERFORMANCE ASSUMING FROZEN COMPOSITION

 Pin =  1469.6 PSIA
 CASE = test___________

             REACTANT                       MOLES         ENERGY      TEMP
                                                         KJ/KG-MOL      K
 FUEL        H2(L)                      100.0000000     -9012.000     20.270
 OXIDANT     O2(L)                      100.0000000    -12979.000     90.170

 O/F=    2.33432  %FUEL= 29.991137  R,EQ.RATIO= 3.400000  PHI,EQ.RATIO= 3.400000

                 CHAMBER   THROAT     EXIT
 Pinf/P            1.0000   1.8189   80.477
 P, BAR            101.33   55.706   1.2591
 T, K             2033.01  1789.41   720.17
 RHO, KG/CU M    4.0288 0 2.5165 0 1.4132-1
 H, KJ/KG        -1624.72 -3037.71 -8625.30
 U, KJ/KG        -4139.75 -5251.38 -9516.23
 G, KJ/KG        -55530.5 -50484.3 -27720.9
 S, KJ/(KG)(K)    26.5152  26.5152  26.5152

 M, (1/n)           6.721    6.721    6.721
 Cp, KJ/(KG)(K)    5.8868   5.7096   4.7473
 GAMMAs            1.2661   1.2766   1.3524
 SON VEL,M/SEC     1784.4   1681.1   1097.7
 MACH NUMBER        0.000    1.000    3.409

 PERFORMANCE PARAMETERS

 Ae/At                      1.0000   8.0000
 CSTAR, M/SEC               2395.2   2395.2
 CF                         0.7018   1.5622
 Ivac, M/SEC                2997.9   3979.9
 Isp, M/SEC                 1681.1   3741.8

 MOLE FRACTIONS

 *H              0.00017   HO2             0.00000   *H2             0.70574
 H2O             0.29408   H2O2            0.00000   *O              0.00000
 *OH             0.00001   *O2             0.00000

  * THERMODYNAMIC PROPERTIES FITTED TO 20000.K

           THEORETICAL ROCKET PERFORMANCE ASSUMING FROZEN COMPOSITION

 Pin =  1469.6 PSIA
 CASE = test___________

             REACTANT                       MOLES         ENERGY      TEMP
                                                         KJ/KG-MOL      K
 FUEL        H2(L)                      100.0000000     -9012.000     20.270
 OXIDANT     O2(L)                      100.0000000    -12979.000     90.170

 O/F=    2.26762  %FUEL= 30.603280  R,EQ.RATIO= 3.500000  PHI,EQ.RATIO= 3.500000

                 CHAMBER   THROAT     EXIT
 Pinf/P            1.0000   1.8210   81.205
 P, BAR            101.33   55.643   1.2478
 T, K             1987.41  1746.76   696.13
 RHO, KG/CU M    4.0389 0 2.5235 0 1.4199-1
 H, KJ/KG        -1649.60 -3060.77 -8613.78
 U, KJ/KG        -4158.34 -5265.73 -9492.52
 G, KJ/KG        -54937.4 -49896.1 -27279.0
 S, KJ/(KG)(K)    26.8127  26.8127  26.8127

 M, (1/n)           6.587    6.587    6.587
 Cp, KJ/(KG)(K)    5.9529   5.7707   4.8168
 GAMMAs            1.2691   1.2800   1.3551
 SON VEL,M/SEC     1784.3   1680.0   1091.2
 MACH NUMBER        0.000    1.000    3.420

 PERFORMANCE PARAMETERS

 Ae/At                      1.0000   8.0000
 CSTAR, M/SEC               2390.0   2390.0
 CF                         0.7029   1.5615
 Ivac, M/SEC                2992.5   3967.5
 Isp, M/SEC                 1680.0   3732.1

 MOLE FRACTIONS

 *H              0.00013   HO2             0.00000   *H2             0.71418
 H2O             0.28569   H2O2            0.00000   *O              0.00000
 *OH             0.00001   *O2             0.00000

  * THERMODYNAMIC PROPERTIES FITTED TO 20000.K

           THEORETICAL ROCKET PERFORMANCE ASSUMING FROZEN COMPOSITION

 Pin =  1469.6 PSIA
 CASE = test___________

             REACTANT                       MOLES         ENERGY      TEMP
                                                         KJ/KG-MOL      K
 FUEL        H2(L)                      100.0000000     -9012.000     20.270
 OXIDANT     O2(L)                      100.0000000    -12979.000     90.170

 O/F=    2.20463  %FUEL= 31.204811  R,EQ.RATIO= 3.600000  PHI,EQ.RATIO= 3.600000

                 CHAMBER   THROAT     EXIT
 Pinf/P            1.0000   1.8230   81.902
 P, BAR            101.33   55.580   1.2372
 T, K             1943.74  1705.97   673.56
 RHO, KG/CU M    4.0501 0 2.5313 0 1.4270-1
 H, KJ/KG        -1674.05 -3082.99 -8600.64
 U, KJ/KG        -4175.85 -5278.75 -9467.58
 G, KJ/KG        -54352.5 -49317.5 -26855.2
 S, KJ/(KG)(K)    27.1017  27.1017  27.1017

 M, (1/n)           6.460    6.460    6.460
 Cp, KJ/(KG)(K)    6.0170   5.8299   4.8862
 GAMMAs            1.2721   1.2833   1.3576
 SON VEL,M/SEC     1784.0   1678.7   1084.9
 MACH NUMBER        0.000    1.000    3.431

 PERFORMANCE PARAMETERS

 Ae/At                      1.0000   8.0000
 CSTAR, M/SEC               2384.6   2384.6
 CF                         0.7039   1.5608
 Ivac, M/SEC                2986.7   3954.9
 Isp, M/SEC                 1678.7   3722.0

 MOLE FRACTIONS

 *H              0.00009   HO2             0.00000   *H2             0.72214
 H2O             0.27776   H2O2            0.00000   *O              0.00000
 *OH             0.00000   *O2             0.00000

  * THERMODYNAMIC PROPERTIES FITTED TO 20000.K

           THEORETICAL ROCKET PERFORMANCE ASSUMING FROZEN COMPOSITION

 Pin =  1469.6 PSIA
 CASE = test___________

             REACTANT                       MOLES         ENERGY      TEMP
                                                         KJ/KG-MOL      K
 FUEL        H2(L)                      100.0000000     -9012.000     20.270
 OXIDANT     O2(L)                      100.0000000    -12979.000     90.170

 O/F=    2.14505  %FUEL= 31.796003  R,EQ.RATIO= 3.700000  PHI,EQ.RATIO= 3.700000

                 CHAMBER   THROAT     EXIT
 Pinf/P            1.0000   1.8250   82.567
 P, BAR            101.33   55.519   1.2272
 T, K             1901.88  1666.92   652.34
 RHO, KG/CU M    4.0623 0 2.5396 0 1.4344-1
 H, KJ/KG        -1698.08 -3104.41 -8586.07
 U, KJ/KG        -4192.35 -5290.54 -9441.60
 G, KJ/KG        -53776.0 -48748.7 -26448.7
 S, KJ/(KG)(K)    27.3824  27.3824  27.3824

 M, (1/n)           6.340    6.340    6.340
 Cp, KJ/(KG)(K)    6.0791   5.8876   4.9556
 GAMMAs            1.2751   1.2866   1.3599
 SON VEL,M/SEC     1783.4   1677.1   1078.6
 MACH NUMBER        0.000    1.000    3.441

 PERFORMANCE PARAMETERS

 Ae/At                      1.0000   8.0000
 CSTAR, M/SEC               2379.0   2379.0
 CF                         0.7050   1.5602
 Ivac, M/SEC                2980.6   3942.1
 Isp, M/SEC                 1677.1   3711.6

 MOLE FRACTIONS

 *H              0.00007   HO2             0.00000   *H2             0.72967
 H2O             0.27026   H2O2            0.00000   *O              0.00000
 *OH             0.00000   *O2             0.00000

  * THERMODYNAMIC PROPERTIES FITTED TO 20000.K

           THEORETICAL ROCKET PERFORMANCE ASSUMING FROZEN COMPOSITION

 Pin =  1469.6 PSIA
 CASE = test___________

             REACTANT                       MOLES         ENERGY      TEMP
                                                         KJ/KG-MOL      K
 FUEL        H2(L)                      100.0000000     -9012.000     20.270
 OXIDANT     O2(L)                      100.0000000    -12979.000     90.170

 O/F=    2.08860  %FUEL= 32.377121  R,EQ.RATIO= 3.800000  PHI,EQ.RATIO= 3.800000

                 CHAMBER   THROAT     EXIT
 Pinf/P            1.0000   1.8270   83.202
 P, BAR            101.33   55.460   1.2178
 T, K             1861.73  1629.52   632.37
 RHO, KG/CU M    4.0755 0 2.5486 0 1.4421-1
 H, KJ/KG        -1721.71 -3125.08 -8570.26
 U, KJ/KG        -4207.92 -5301.20 -9414.74
 G, KJ/KG        -53208.1 -48189.8 -26058.6
 S, KJ/(KG)(K)    27.6551  27.6551  27.6551

 M, (1/n)           6.226    6.226    6.226
 Cp, KJ/(KG)(K)    6.1394   5.9436   5.0247
 GAMMAs            1.2780   1.2898   1.3620
 SON VEL,M/SEC     1782.5   1675.3   1072.5
 MACH NUMBER        0.000    1.000    3.451

 PERFORMANCE PARAMETERS

 Ae/At                      1.0000   8.0000
 CSTAR, M/SEC               2373.1   2373.1
 CF                         0.7060   1.5595
 Ivac, M/SEC                2974.3   3929.1
 Isp, M/SEC                 1675.3   3701.0

 MOLE FRACTIONS

 *H              0.00005   HO2             0.00000   *H2             0.73680
 H2O             0.26315   H2O2            0.00000   *O              0.00000
 *OH             0.00000   *O2             0.00000

  * THERMODYNAMIC PROPERTIES FITTED TO 20000.K

           THEORETICAL ROCKET PERFORMANCE ASSUMING FROZEN COMPOSITION

 Pin =  1469.6 PSIA
 CASE = test___________

             REACTANT                       MOLES         ENERGY      TEMP
                                                         KJ/KG-MOL      K
 FUEL        H2(L)                      100.0000000     -9012.000     20.270
 OXIDANT     O2(L)                      100.0000000    -12979.000     90.170

 O/F=    2.03505  %FUEL= 32.948420  R,EQ.RATIO= 3.900000  PHI,EQ.RATIO= 3.900000

                 CHAMBER   THROAT     EXIT
 Pinf/P            1.0000   1.8289   83.806
 P, BAR            101.33   55.401   1.2090
 T, K             1823.19  1593.67   613.55
 RHO, KG/CU M    4.0895 0 2.5580 0 1.4500-1
 H, KJ/KG        -1744.93 -3145.03 -8553.36
 U, KJ/KG        -4222.61 -5310.81 -9387.17
 G, KJ/KG        -52648.7 -47640.7 -25683.9
 S, KJ/(KG)(K)    27.9202  27.9202  27.9202

 M, (1/n)           6.118    6.118    6.118
 Cp, KJ/(KG)(K)    6.1980   5.9981   5.0937
 GAMMAs            1.2808   1.2929   1.3639
 SON VEL,M/SEC     1781.4   1673.4   1066.4
 MACH NUMBER        0.000    1.000    3.460

 PERFORMANCE PARAMETERS

 Ae/At                      1.0000   8.0000
 CSTAR, M/SEC               2367.1   2367.1
 CF                         0.7069   1.5589
 Ivac, M/SEC                2967.6   3916.1
 Isp, M/SEC                 1673.4   3690.1

 MOLE FRACTIONS

 *H              0.00004   HO2             0.00000   *H2             0.74356
 H2O             0.25640   H2O2            0.00000   *O              0.00000
 *OH             0.00000   *O2             0.00000

  * THERMODYNAMIC PROPERTIES FITTED TO 20000.K

           THEORETICAL ROCKET PERFORMANCE ASSUMING FROZEN COMPOSITION

 Pin =  1469.6 PSIA
 CASE = test___________

             REACTANT                       MOLES         ENERGY      TEMP
                                                         KJ/KG-MOL      K
 FUEL        H2(L)                      100.0000000     -9012.000     20.270
 OXIDANT     O2(L)                      100.0000000    -12979.000     90.170

 O/F=    1.98417  %FUEL= 33.510148  R,EQ.RATIO= 4.000000  PHI,EQ.RATIO= 4.000000

                 CHAMBER   THROAT     EXIT
 Pinf/P            1.0000   1.8308   84.382
 P, BAR            101.33   55.344   1.2008
 T, K             1786.16  1559.27   595.80
 RHO, KG/CU M    4.1043 0 2.5680 0 1.4582-1
 H, KJ/KG        -1767.76 -3164.31 -8535.53
 U, KJ/KG        -4236.49 -5319.45 -9359.01
 G, KJ/KG        -52097.9 -47101.3 -25323.9
 S, KJ/(KG)(K)    28.1779  28.1779  28.1779

 M, (1/n)           6.016    6.016    6.016
 Cp, KJ/(KG)(K)    6.2550   6.0513   5.1623
 GAMMAs            1.2836   1.2960   1.3656
 SON VEL,M/SEC     1780.2   1671.3   1060.5
 MACH NUMBER        0.000    1.000    3.469

 PERFORMANCE PARAMETERS

 Ae/At                      1.0000   8.0000
 CSTAR, M/SEC               2360.9   2360.9
 CF                         0.7079   1.5583
 Ivac, M/SEC                2960.8   3902.9
 Isp, M/SEC                 1671.3   3679.1

 MOLE FRACTIONS

 *H              0.00003   HO2             0.00000   *H2             0.74998
 H2O             0.25000   H2O2            0.00000   *O              0.00000
 *OH             0.00000   *O2             0.00000

  * THERMODYNAMIC PROPERTIES FITTED TO 20000.K