

         NASA-GLENN CHEMICAL EQUILIBRIUM PROGRAM CEA2, FEBRUARY 5, 2004
                   BY  BONNIE MCBRIDE AND SANFORD GORDON
      REFS: NASA RP-1311, PART I, 1994 AND NASA RP-1311, PART II, 1996

 *******************************************************************************

  
 ### CEA analysis performed on Mon 29-Aug-2022 03:10:37
  
 # Problem Type: "Rocket" (Finite Area Combustor)
  
 prob case=test___________9755 ro equilibrium    fac
  
 !Contraction Ratio:
 ac/at=2
  
 # Pressure (1 value):
 p,atm= 100
 # Supersonic Area Ratio (1 value):
 supar= 8
  
 # Equivalence based on Fuel/Oxid. wt ratio (Eq 9.19*) (26 values):
 phi= 0.5, 0.6, 0.7, 0.8, 0.9, 1, 1.1, 1.2, 1.3, 1.4, 1.5, 1.6, 1.7, 1.8, 1.9, 2,
  2.1, 2.2, 2.3, 2.4, 2.5, 2.6, 2.7, 2.8, 2.9, 3
  
 # You selected the following fuels and oxidizers:
 reac
 fuel CH4(L)            wt%=100.0000
 oxid O2(L)             wt%=100.0000
  
 # You selected these options for output:
 # short version of output
 output short
 # Proportions of any products will be expressed as Mole Fractions.
 # Heat will be expressed as siunits
 output siunits
 # Trace variable:
 output trace=1e-16
  
 # Input prepared by this script:/var/www/sites/cearun.grc.nasa.gov/cgi-bin/CEARU
 N/prepareInputFile.cgi
  
 ### IMPORTANT:  The following line is the end of your CEA input file!
 end

              THEORETICAL ROCKET PERFORMANCE ASSUMING EQUILIBRIUM

            COMPOSITION DURING EXPANSION FROM FINITE AREA COMBUSTOR

 Pin =  1469.6 PSIA
 Ac/At =  2.0000      Pinj/Pinf =  1.052036
 CASE = test___________

             REACTANT                    WT FRACTION      ENERGY      TEMP
                                          (SEE NOTE)     KJ/KG-MOL      K  
 FUEL        CH4(L)                       1.0000000    -89233.000    111.643
 OXIDANT     O2(L)                        1.0000000    -12979.000     90.170

 O/F=    7.97853  %FUEL= 11.137684  R,EQ.RATIO= 0.500000  PHI,EQ.RATIO= 0.500000

                 INJECTOR  COMB END  THROAT     EXIT
 Pinj/P            1.0000   1.1129   1.8292   58.571
 P, BAR            101.33   91.044   55.394   1.7299
 T, K             3155.88  3132.89  2963.64  1825.63
 RHO, KG/CU M    1.0783 1 9.7656 0 6.3269 0 3.2813-1
 H, KJ/KG         -979.95 -1032.59 -1481.60 -3894.00
 U, KJ/KG        -1919.60 -1964.88 -2357.13 -4421.22
 G, KJ/KG        -31105.4 -30985.9 -29816.7 -21348.7
 S, KJ/(KG)(K)     9.5458   9.5609   9.5609   9.5609

 M, (1/n)          27.925   27.940   28.144   28.792
 (dLV/dLP)t      -1.01191 -1.01170 -1.00884 -1.00016
 (dLV/dLT)p        1.2494   1.2470   1.1988   1.0065
 Cp, KJ/(KG)(K)    3.3740   3.3676   3.1171   1.7097
 GAMMAs            1.1440   1.1438   1.1459   1.2062
 SON VEL,M/SEC     1036.8   1032.6   1001.7    797.4
 MACH NUMBER        0.000    0.314    1.000    3.027

 PERFORMANCE PARAMETERS

 Ae/At                      2.0000   1.0000   8.0000
 CSTAR, M/SEC               1519.8   1519.8   1519.8
 CF                         0.2135   0.6591   1.5885
 Ivac, M/SEC                3197.7   1875.7   2632.5
 Isp, M/SEC                  324.5   1001.7   2414.1

 MOLE FRACTIONS

 *C              2.768-13 2.261-13 3.314-14 6.556-25
 *CH             6.367-14 5.063-14 6.580-15 5.412-26
 CH2             8.013-14 6.363-14 8.948-15 2.843-25
 CH3             9.622-14 7.696-14 1.251-14 3.637-24
 CH2OH           4.777-13 3.797-13 6.980-14 2.403-22
 CH3O            1.246-13 9.764-14 1.611-14 1.851-23
 CH4             1.727-14 1.376-14 2.380-15 3.049-24
 CH3OH           2.009-14 1.580-14 2.927-15 2.023-23
 *CO             1.6284-2 1.5952-2 1.1556-2 6.4151-5
 *CO2            1.7758-1 1.7802-1 1.8384-1 1.9982-1
 COOH            2.600 -6 2.333 -6 1.103 -6 2.389-10
 CH2CO,ketene    2.092-15 1.595-15 1.957-16 3.401-27
 O(CH)2O         5.056-16 3.816-16 5.135-17 8.057-27
 HO(CO)2OH       7.527-14 5.883-14 1.474-14 3.084-20
 C2O             3.391-14 2.654-14 3.343-15 2.859-26
 *H              1.6106-3 1.5810-3 1.0625-3 1.9265-6
 HCO             1.739 -7 1.536 -7 5.386 -8 1.161-13
 HCCO            1.878-15 1.429-15 1.578-16 4.712-28
 HO2             5.2871-4 4.9649-4 3.3277-4 5.0682-6
 *H2             4.2265-3 4.1623-3 3.1342-3 3.2665-5
 HCHO,formaldehy 2.890 -9 2.502 -9 8.249-10 1.525-15
 HCOOH           2.214 -7 1.951 -7 8.754 -8 1.856-11
 H2O             3.5522-1 3.5598-1 3.6526-1 3.9880-1
 H2O2            4.8049-5 4.4245-5 2.7805-5 3.3016-7
 *O              1.1501-2 1.1297-2 8.2946-3 7.4225-5
 *OH             5.4360-2 5.3468-2 4.3340-2 1.8823-3
 *O2             3.7863-1 3.7899-1 3.8315-1 3.9931-1
 O3              4.4396-6 4.0132-6 2.1843-6 8.4274-9

  * THERMODYNAMIC PROPERTIES FITTED TO 20000.K

 NOTE. WEIGHT FRACTION OF FUEL IN TOTAL FUELS AND OF OXIDANT IN TOTAL OXIDANTS

              THEORETICAL ROCKET PERFORMANCE ASSUMING EQUILIBRIUM

            COMPOSITION DURING EXPANSION FROM FINITE AREA COMBUSTOR

 Pin =  1469.6 PSIA
 Ac/At =  2.0000      Pinj/Pinf =  1.051699
 CASE = test___________

             REACTANT                    WT FRACTION      ENERGY      TEMP
                                          (SEE NOTE)     KJ/KG-MOL      K  
 FUEL        CH4(L)                       1.0000000    -89233.000    111.643
 OXIDANT     O2(L)                        1.0000000    -12979.000     90.170

 O/F=    6.64877  %FUEL= 13.073993  R,EQ.RATIO= 0.600000  PHI,EQ.RATIO= 0.600000

                 INJECTOR  COMB END  THROAT     EXIT
 Pinj/P            1.0000   1.1122   1.8209   54.746
 P, BAR            101.33   91.107   55.646   1.8508
 T, K             3327.76  3304.57  3145.56  2114.16
 RHO, KG/CU M    9.8497 0 8.9241 0 5.7788 0 2.9725-1
 H, KJ/KG        -1079.79 -1137.05 -1625.93 -4304.93
 U, KJ/KG        -2108.50 -2157.95 -2588.87 -4927.57
 G, KJ/KG        -34371.0 -34247.8 -33143.4 -25488.1
 S, KJ/(KG)(K)    10.0041  10.0197  10.0197  10.0197

 M, (1/n)          26.897   26.913   27.160   28.232
 (dLV/dLP)t      -1.01994 -1.01972 -1.01627 -1.00102
 (dLV/dLT)p        1.3914   1.3900   1.3398   1.0337
 Cp, KJ/(KG)(K)    4.3025   4.3075   4.0800   2.0969
 GAMMAs            1.1353   1.1349   1.1343   1.1752
 SON VEL,M/SEC     1080.7   1076.4   1045.1    855.4
 MACH NUMBER        0.000    0.314    1.000    2.969

 PERFORMANCE PARAMETERS

 Ae/At                      2.0000   1.0000   8.0000
 CSTAR, M/SEC               1595.2   1595.2   1595.2
 CF                         0.2121   0.6552   1.5921
 Ivac, M/SEC                3355.4   1966.5   2784.9
 Isp, M/SEC                  338.4   1045.1   2539.7

 MOLE FRACTIONS

 *C              3.408-12 2.865-12 6.273-13 2.047-20
 *CH             8.866-13 7.258-13 1.413-13 1.988-21
 CH2             1.054-12 8.597-13 1.762-13 5.611-21
 CH3             1.128-12 9.243-13 2.104-13 2.803-20
 CH2OH           3.510-12 2.846-12 6.923-13 3.801-19
 CH3O            1.011-12 8.097-13 1.794-13 4.223-20
 CH4             1.958-13 1.594-13 3.738-14 1.152-20
 CH3OH           1.492-13 1.195-13 2.873-14 2.118-20
 *CO             3.3383-2 3.2951-2 2.6596-2 9.9088-4
 *CO2            1.8581-1 1.8638-1 1.9475-1 2.2909-1
 COOH            5.5650-6 5.0365-6 2.6898-6 4.8852-9
 C2H2,acetylene  2.179-16 1.675-16 2.267-17 9.232-27
 CH2CO,ketene    3.065-14 2.401-14 4.289-15 6.156-23
 O(CH)2O         4.779-15 3.691-15 6.859-16 3.252-23
 HO(CO)2OH       2.002-13 1.581-13 4.580-14 1.007-18
 C2O             4.712-13 3.796-13 7.160-14 8.987-22
 C3O2            6.056-16 4.616-16 6.837-17 1.312-25
 *H              3.6510-3 3.6153-3 2.7486-3 4.9767-5
 HCO             6.943 -7 6.222 -7 2.688 -7 2.514-11
 HCCO            2.980-14 2.335-14 3.882-15 1.862-23
 HO2             5.8911-4 5.5521-4 3.9065-4 1.4966-5
 *H2             8.7720-3 8.6928-3 7.1608-3 3.9531-4
 HCHO,formaldehy 1.239 -8 1.089 -8 4.389 -9 2.976-13
 HCOOH           5.048 -7 4.484 -7 2.252 -7 3.241-10
 H2O             3.9102-1 3.9187-1 4.0307-1 4.5580-1
 H2O2            5.7563-5 5.3177-5 3.4888-5 9.1800-7
 *O              1.6610-2 1.6420-2 1.3161-2 6.2234-4
 *OH             7.2831-2 7.1928-2 6.1705-2 7.8447-3
 *O2             2.8726-1 2.8753-1 2.9038-1 3.0519-1
 O3              4.1656-6 3.7783-6 2.1618-6 2.1998-8

  * THERMODYNAMIC PROPERTIES FITTED TO 20000.K

 NOTE. WEIGHT FRACTION OF FUEL IN TOTAL FUELS AND OF OXIDANT IN TOTAL OXIDANTS

              THEORETICAL ROCKET PERFORMANCE ASSUMING EQUILIBRIUM

            COMPOSITION DURING EXPANSION FROM FINITE AREA COMBUSTOR

 Pin =  1469.6 PSIA
 Ac/At =  2.0000      Pinj/Pinf =  1.051533
 CASE = test___________

             REACTANT                    WT FRACTION      ENERGY      TEMP
                                          (SEE NOTE)     KJ/KG-MOL      K  
 FUEL        CH4(L)                       1.0000000    -89233.000    111.643
 OXIDANT     O2(L)                        1.0000000    -12979.000     90.170

 O/F=    5.69895  %FUEL= 14.927717  R,EQ.RATIO= 0.700000  PHI,EQ.RATIO= 0.700000

                 INJECTOR  COMB END  THROAT     EXIT
 Pinj/P            1.0000   1.1118   1.8167   52.323
 P, BAR            101.33   91.138   55.773   1.9365
 T, K             3446.10  3422.52  3268.86  2334.39
 RHO, KG/CU M    9.1578 0 8.2994 0 5.3730 0 2.7536-1
 H, KJ/KG        -1175.39 -1236.76 -1761.10 -4659.91
 U, KJ/KG        -2281.81 -2334.89 -2799.12 -5363.19
 G, KJ/KG        -37100.4 -36971.1 -35891.2 -29033.1
 S, KJ/(KG)(K)    10.4248  10.4410  10.4410  10.4410

 M, (1/n)          25.897   25.914   26.184   27.598
 (dLV/dLP)t      -1.02790 -1.02770 -1.02410 -1.00366
 (dLV/dLT)p        1.5245   1.5244   1.4796   1.1059
 Cp, KJ/(KG)(K)    5.1900   5.2078   5.0379   2.8128
 GAMMAs            1.1311   1.1306   1.1285   1.1459
 SON VEL,M/SEC     1118.7   1114.2   1082.3    897.7
 MACH NUMBER        0.000    0.314    1.000    2.941

 PERFORMANCE PARAMETERS

 Ae/At                      2.0000   1.0000   8.0000
 CSTAR, M/SEC               1657.0   1657.0   1657.0
 CF                         0.2114   0.6532   1.5932
 Ivac, M/SEC                3484.7   2041.4   2906.3
 Isp, M/SEC                  350.4   1082.3   2639.9

 MOLE FRACTIONS

 *C              1.847-11 1.576-11 4.300-12 1.177-17
 *CH             5.402-12 4.489-12 1.092-12 1.332-18
 CH2             6.437-12 5.326-12 1.346-12 2.735-18
 CH3             6.674-12 5.536-12 1.522-12 8.254-18
 CH2OH           1.446-11 1.185-11 3.371-12 3.990-17
 CH3O            4.446-12 3.598-12 9.398-13 5.577-18
 CH4             1.184-12 9.743-13 2.715-13 2.377-18
 CH3OH           6.449-13 5.216-13 1.452-13 1.850-18
 CH3OOH          3.632-16 2.738-16 5.281-17 4.276-23
 *CO             5.4622-2 5.4131-2 4.6492-2 5.5447-3
 *CO2            1.8634-1 1.8699-1 1.9714-1 2.5126-1
 COOH            9.1165-6 8.2879-6 4.7395-6 3.1607-8
 C2H             3.158-16 2.409-16 3.355-17 2.308-25
 C2H2,acetylene  2.461-15 1.924-15 3.400-16 2.470-23
 CH2CO,ketene    2.090-13 1.660-13 3.670-14 3.166-20
 O(CH)2O         2.314-14 1.809-14 4.035-15 6.306-21
 HO(CO)2OH       3.822-13 3.035-13 9.564-14 9.398-18
 CH3CO,acetyl    1.416-16 1.051-16 1.565-17 5.094-25
 C2O             2.871-12 2.348-12 5.551-13 5.742-19
 C3O2            4.416-15 3.420-15 6.446-16 1.210-22
 *H              6.3656-3 6.3308-3 5.1458-3 3.6604-4
 HCO             1.799 -6 1.625 -6 7.889 -7 7.198-10
 HCCO            2.053-13 1.633-13 3.417-14 1.440-20
 HO2             5.7482-4 5.4266-4 3.9076-4 2.5387-5
 *H2             1.5044-2 1.4955-2 1.2949-2 1.9432-3
 HCHO,formaldehy 3.499 -8 3.097 -8 1.399 -8 8.503-12
 HCOOH           8.9589-7 7.9896-7 4.2821-7 2.0346-9
 H2O             4.2074-1 4.2163-1 4.3426-1 5.0261-1
 H2O2            6.1160-5 5.6585-5 3.7915-5 1.5884-6
 *O              1.9603-2 1.9438-2 1.6299-2 2.0303-3
 *OH             8.5246-2 8.4355-2 7.4523-2 1.7730-2
 *O2             2.1140-1 2.1156-1 2.1275-1 2.1849-1
 O3              3.3010-6 2.9981-6 1.7518-6 3.0666-8

  * THERMODYNAMIC PROPERTIES FITTED TO 20000.K

 NOTE. WEIGHT FRACTION OF FUEL IN TOTAL FUELS AND OF OXIDANT IN TOTAL OXIDANTS

              THEORETICAL ROCKET PERFORMANCE ASSUMING EQUILIBRIUM

            COMPOSITION DURING EXPANSION FROM FINITE AREA COMBUSTOR

 Pin =  1469.6 PSIA
 Ac/At =  2.0000      Pinj/Pinf =  1.051452
 CASE = test___________

             REACTANT                    WT FRACTION      ENERGY      TEMP
                                          (SEE NOTE)     KJ/KG-MOL      K  
 FUEL        CH4(L)                       1.0000000    -89233.000    111.643
 OXIDANT     O2(L)                        1.0000000    -12979.000     90.170

 O/F=    4.98658  %FUEL= 16.704030  R,EQ.RATIO= 0.800000  PHI,EQ.RATIO= 0.800000

                 INJECTOR  COMB END  THROAT     EXIT
 Pinj/P            1.0000   1.1116   1.8147   50.981
 P, BAR            101.33   91.153   55.836   1.9875
 T, K             3528.07  3504.04  3352.93  2483.66
 RHO, KG/CU M    8.6164 0 7.8098 0 5.0557 0 2.5866-1
 H, KJ/KG        -1266.98 -1332.11 -1888.60 -4977.40
 U, KJ/KG        -2442.94 -2499.27 -2993.02 -5745.76
 G, KJ/KG        -39419.0 -39283.0 -38202.8 -31876.9
 S, KJ/(KG)(K)    10.8139  10.8306  10.8306  10.8306

 M, (1/n)          24.945   24.962   25.242   26.876
 (dLV/dLP)t      -1.03485 -1.03468 -1.03121 -1.00852
 (dLV/dLT)p        1.6359   1.6372   1.6013   1.2271
 Cp, KJ/(KG)(K)    5.9796   6.0099   5.9119   3.8679
 GAMMAs            1.1291   1.1285   1.1257   1.1260
 SON VEL,M/SEC     1152.3   1147.7   1115.0    930.2
 MACH NUMBER        0.000    0.314    1.000    2.929

 PERFORMANCE PARAMETERS

 Ae/At                      2.0000   1.0000   8.0000
 CSTAR, M/SEC               1709.5   1709.5   1709.5
 CF                         0.2111   0.6522   1.5935
 Ivac, M/SEC                3595.0   2105.5   3006.2
 Isp, M/SEC                  360.9   1115.0   2724.1

 MOLE FRACTIONS

 *C              6.246-11 5.372-11 1.671-11 5.768-16
 *CH             2.055-11 1.721-11 4.789-12 7.617-17
 CH2             2.555-11 2.130-11 6.115-12 1.388-16
 CH3             2.702-11 2.257-11 6.981-12 3.352-16
 CH2OH           4.300-11 3.544-11 1.111-11 7.950-16
 CH3O            1.379-11 1.123-11 3.247-12 1.274-16
 CH4             5.074-12 4.200-12 1.307-12 8.466-17
 CH3OH           2.061-12 1.676-12 5.123-13 3.553-17
 CH3OOH          1.038-15 7.872-16 1.674-16 8.433-22
 *CO             7.8569-2 7.8046-2 6.9750-2 1.6657-2
 *CO2            1.8115-1 1.8185-1 1.9307-1 2.6318-1
 COOH            1.2720-5 1.1593-5 6.9121-6 9.8485-8
 *C2             1.225-16 9.403-17 1.437-17 1.306-24
 C2H             2.219-15 1.712-15 2.878-16 6.572-23
 C2H2,acetylene  1.637-14 1.293-14 2.701-15 4.210-21
 C2H2,vinylidene 1.438-16 1.092-16 1.756-17 3.105-24
 CH2CO,ketene    9.302-13 7.446-13 1.884-13 1.853-18
 O(CH)2O         7.658-14 6.026-14 1.509-14 1.875-19
 HO(CO)2OH       5.962-13 4.749-13 1.580-13 3.863-17
 CH3CO,acetyl    8.136-16 6.095-16 1.060-16 5.824-23
 C2O             1.094-11 9.019-12 2.451-12 3.335-17
 C3O2            1.974-14 1.543-14 3.387-15 9.707-21
 *H              9.5350-3 9.5048-3 8.0329-3 1.2390-3
 HCO             3.6411-6 3.3027-6 1.7223-6 5.9300-9
 HCCO            8.824-13 7.081-13 1.709-13 9.971-19
 HO2             5.0985-4 4.8166-4 3.4981-4 2.9176-5
 *H2             2.3218-2 2.3120-2 2.0649-2 5.5585-3
 HCHO,formaldehy 7.801 -8 6.932 -8 3.363 -8 7.491-11
 HCOOH           1.3722-6 1.2266-6 6.8511-7 6.6779-9
 H2O             4.4540-1 4.4632-1 4.6013-1 5.4000-1
 H2O2            5.9737-5 5.5303-5 3.7390-5 1.9732-6
 *O              2.0319-2 2.0179-2 1.7300-2 3.5793-3
 *OH             9.1524-2 9.0656-2 8.1303-2 2.6972-2
 *O2             1.4970-1 1.4978-1 1.4937-1 1.4278-1
 O3              2.2887-6 2.0792-6 1.2180-6 2.6475-8

  * THERMODYNAMIC PROPERTIES FITTED TO 20000.K

 NOTE. WEIGHT FRACTION OF FUEL IN TOTAL FUELS AND OF OXIDANT IN TOTAL OXIDANTS

              THEORETICAL ROCKET PERFORMANCE ASSUMING EQUILIBRIUM

            COMPOSITION DURING EXPANSION FROM FINITE AREA COMBUSTOR

 Pin =  1469.6 PSIA
 Ac/At =  2.0000      Pinj/Pinf =  1.051422
 CASE = test___________

             REACTANT                    WT FRACTION      ENERGY      TEMP
                                          (SEE NOTE)     KJ/KG-MOL      K  
 FUEL        CH4(L)                       1.0000000    -89233.000    111.643
 OXIDANT     O2(L)                        1.0000000    -12979.000     90.170

 O/F=    4.43251  %FUEL= 18.407680  R,EQ.RATIO= 0.900000  PHI,EQ.RATIO= 0.900000

                 INJECTOR  COMB END  THROAT     EXIT
 Pinj/P            1.0000   1.1115   1.8139   50.306
 P, BAR            101.33   91.159   55.862   2.0142
 T, K             3582.04  3557.62  3407.29  2574.67
 RHO, KG/CU M    8.1801 0 7.4150 0 4.8001 0 2.4543-1
 H, KJ/KG        -1354.84 -1423.39 -2009.18 -5265.51
 U, KJ/KG        -2593.51 -2652.78 -3172.95 -6086.17
 G, KJ/KG        -41383.6 -41241.0 -40144.3 -34081.8
 S, KJ/(KG)(K)    11.1749  11.1922  11.1922  11.1922

 M, (1/n)          24.044   24.061   24.343   26.085
 (dLV/dLP)t      -1.03998 -1.03983 -1.03660 -1.01457
 (dLV/dLT)p        1.7148   1.7171   1.6900   1.3700
 Cp, KJ/(KG)(K)    6.6120   6.6524   6.6211   5.0830
 GAMMAs            1.1284   1.1278   1.1245   1.1150
 SON VEL,M/SEC     1182.3   1177.5   1144.0    956.6
 MACH NUMBER        0.000    0.314    1.000    2.924

 PERFORMANCE PARAMETERS

 Ae/At                      2.0000   1.0000   8.0000
 CSTAR, M/SEC               1755.0   1755.0   1755.0
 CF                         0.2110   0.6518   1.5935
 Ivac, M/SEC                3690.5   2161.3   3090.1
 Isp, M/SEC                  370.3   1144.0   2796.7

 MOLE FRACTIONS

 *C              1.558-10 1.345-10 4.541-11 6.773-15
 *CH             5.795-11 4.876-11 1.478-11 1.066-15
 CH2             7.765-11 6.503-11 2.033-11 1.991-15
 CH3             8.731-11 7.322-11 2.460-11 4.651-15
 CH2OH           1.045-10 8.643-11 2.895-11 6.292-15
 CH3O            3.446-11 2.815-11 8.717-12 1.089-15
 CH4             1.785-11 1.483-11 5.007-12 1.199-15
 CH3OH           5.507-12 4.493-12 1.469-12 3.020-16
 CH3OOH          2.365-15 1.799-15 4.078-16 6.156-21
 *CO             1.0426-1 1.0372-1 9.5336-2 3.5326-2
 *CO2            1.7161-1 1.7233-1 1.8397-1 2.6398-1
 COOH            1.5900-5 1.4513-5 8.8860-6 1.9750-7
 *C2             5.561-16 4.299-16 7.478-17 6.420-23
 C2H             1.064-14 8.262-15 1.576-15 3.051-21
 C2H2,acetylene  7.954-14 6.319-14 1.487-14 1.611-19
 C2H2,vinylidene 7.620-16 5.824-16 1.065-16 1.605-22
 CH2CO,ketene    3.205-12 2.578-12 7.180-13 3.323-17
 O(CH)2O         2.001-13 1.581-13 4.289-14 1.957-18
 HO(CO)2OH       8.100-13 6.464-13 2.232-13 9.672-17
 CH3CO,acetyl    3.461-15 2.607-15 5.057-16 1.656-21
 CH3COOH         1.608-16 1.196-16 2.482-17 1.823-22
 OHCH2COOH       1.743-16 1.266-16 2.467-17 1.386-22
 C2O             3.100-11 2.569-11 7.660-12 4.970-16
 C3O2            6.528-14 5.130-14 1.253-14 1.998-19
 *H              1.2928-2 1.2903-2 1.1163-2 2.6645-3
 HCO             6.2957-6 5.7250-6 3.1312-6 2.4045-8
 HCCO            2.834-12 2.286-12 6.083-13 1.791-17
 HO2             4.1515-4 3.9221-4 2.8393-4 2.4701-5
 *H2             3.3671-2 3.3562-2 3.0641-2 1.1912-2
 HCHO,formaldehy 1.506 -7 1.341 -7 6.843 -8 3.452-10
 HCOOH           1.9102-6 1.7100-6 9.8327-7 1.5099-8
 H2O             4.6541-1 4.6634-1 4.8117-1 5.6961-1
 H2O2            5.4269-5 5.0245-5 3.3962-5 1.9087-6
 *O              1.9017-2 1.8895-2 1.6307-2 4.1474-3
 *OH             9.1927-2 9.1088-2 8.2144-2 3.1506-2
 *O2             1.0069-1 1.0069-1 9.8936-2 8.0829-2
 O3              1.3913-6 1.2632-6 7.2921-7 1.4853-8

  * THERMODYNAMIC PROPERTIES FITTED TO 20000.K

 NOTE. WEIGHT FRACTION OF FUEL IN TOTAL FUELS AND OF OXIDANT IN TOTAL OXIDANTS

              THEORETICAL ROCKET PERFORMANCE ASSUMING EQUILIBRIUM

            COMPOSITION DURING EXPANSION FROM FINITE AREA COMBUSTOR

 Pin =  1469.6 PSIA
 Ac/At =  2.0000      Pinj/Pinf =  1.051430
 CASE = test___________

             REACTANT                    WT FRACTION      ENERGY      TEMP
                                          (SEE NOTE)     KJ/KG-MOL      K  
 FUEL        CH4(L)                       1.0000000    -89233.000    111.643
 OXIDANT     O2(L)                        1.0000000    -12979.000     90.170

 O/F=    3.98926  %FUEL= 20.043038  R,EQ.RATIO= 1.000000  PHI,EQ.RATIO= 1.000000

                 INJECTOR  COMB END  THROAT     EXIT
 Pinj/P            1.0000   1.1115   1.8140   50.119
 P, BAR            101.33   91.157   55.859   2.0217
 T, K             3611.22  3586.47  3435.39  2612.42
 RHO, KG/CU M    7.8250 0 7.0932 0 4.5921 0 2.3484-1
 H, KJ/KG        -1439.17 -1510.84 -2123.20 -5526.02
 U, KJ/KG        -2734.05 -2795.97 -3339.61 -6386.92
 G, KJ/KG        -43005.3 -42856.6 -41727.2 -35642.6
 S, KJ/(KG)(K)    11.5103  11.5283  11.5283  11.5283

 M, (1/n)          23.188   23.204   23.482   25.230
 (dLV/dLP)t      -1.04229 -1.04215 -1.03903 -1.01833
 (dLV/dLT)p        1.7471   1.7499   1.7267   1.4558
 Cp, KJ/(KG)(K)    6.9985   7.0443   7.0439   5.9008
 GAMMAs            1.1288   1.1282   1.1247   1.1112
 SON VEL,M/SEC     1209.0   1204.1   1169.6    978.1
 MACH NUMBER        0.000    0.314    1.000    2.923

 PERFORMANCE PARAMETERS

 Ae/At                      2.0000   1.0000   8.0000
 CSTAR, M/SEC               1794.2   1794.2   1794.2
 CF                         0.2110   0.6519   1.5934
 Ivac, M/SEC                3773.0   2209.6   3160.1
 Isp, M/SEC                  378.6   1169.6   2859.0

 MOLE FRACTIONS

 *C              3.108-10 2.690-10 9.534-11 3.207-14
 *CH             1.322-10 1.115-10 3.573-11 6.380-15
 CH2             1.974-10 1.658-10 5.511-11 1.417-14
 CH3             2.457-10 2.066-10 7.417-11 3.853-14
 CH2OH           2.224-10 1.843-10 6.493-11 3.052-14
 CH3O            7.440-11 6.090-11 1.984-11 5.449-15
 CH4             5.632-11 4.692-11 1.700-11 1.181-14
 CH3OH           1.320-11 1.079-11 3.731-12 1.776-15
 CH3OOH          4.580-15 3.489-15 8.268-16 2.492-20
 *CO             1.3102-1 1.3049-1 1.2257-1 6.2235-2
 *CO2            1.5865-1 1.5938-1 1.7079-1 2.5299-1
 COOH            1.8234-5 1.6656-5 1.0361-5 2.9319-7
 *C2             1.875-15 1.455-15 2.762-16 9.571-22
 C2H             3.955-14 3.084-14 6.447-15 5.242-20
 C2H2,acetylene  3.191-13 2.546-13 6.588-14 3.025-18
 C2H2,vinylidene 3.200-15 2.456-15 4.955-16 3.393-21
 CH2CO,ketene    9.425-12 7.607-12 2.289-12 3.380-16
 O(CH)2O         4.470-13 3.542-13 1.022-13 1.175-17
 HO(CO)2OH       9.894-13 7.907-13 2.804-13 1.766-16
 C2H3,vinyl      2.630-16 1.960-16 3.510-17 1.130-22
 CH3CO,acetyl    1.219-14 9.215-15 1.950-15 2.382-20
 CH3CHO,ethanal  2.569-16 1.910-16 3.876-17 3.879-22
 CH3COOH         4.740-16 3.537-16 7.919-17 1.784-21
 OHCH2COOH       3.930-16 2.862-16 5.923-17 8.120-22
 C2O             7.164-11 5.955-11 1.895-11 3.382-15
 C3O2            1.771-13 1.397-13 3.705-14 2.020-18
 *H              1.6269-2 1.6244-2 1.4236-2 4.2550-3
 HCO             9.7487-6 8.8785-6 5.0200-6 6.4477-8
 HCCO            7.495-12 6.064-12 1.735-12 1.547-16
 HO2             3.0832-4 2.9108-4 2.0712-4 1.4580-5
 *H2             4.7039-2 4.6916-2 4.3617-2 2.2389-2
 HCHO,formaldehy 2.6472-7 2.3626-7 1.2541-7 1.1478-9
 HCOOH           2.4843-6 2.2263-6 1.3088-6 2.7707-8
 H2O             4.8063-1 4.8158-1 4.9725-1 5.9148-1
 H2O2            4.5754-5 4.2340-5 2.8316-5 1.3997-6
 *O              1.6141-2 1.6033-2 1.3714-2 3.2167-3
 *OH             8.6774-2 8.5969-2 7.7255-2 2.8892-2
 *O2             6.3090-2 6.3027-2 6.0317-2 3.4533-2
 O3              7.2676-7 6.5877-7 3.6610-7 4.6249-9

  * THERMODYNAMIC PROPERTIES FITTED TO 20000.K

 NOTE. WEIGHT FRACTION OF FUEL IN TOTAL FUELS AND OF OXIDANT IN TOTAL OXIDANTS

              THEORETICAL ROCKET PERFORMANCE ASSUMING EQUILIBRIUM

            COMPOSITION DURING EXPANSION FROM FINITE AREA COMBUSTOR

 Pin =  1469.6 PSIA
 Ac/At =  2.0000      Pinj/Pinf =  1.051484
 CASE = test___________

             REACTANT                    WT FRACTION      ENERGY      TEMP
                                          (SEE NOTE)     KJ/KG-MOL      K  
 FUEL        CH4(L)                       1.0000000    -89233.000    111.643
 OXIDANT     O2(L)                        1.0000000    -12979.000     90.170

 O/F=    3.62660  %FUEL= 21.614129  R,EQ.RATIO= 1.100000  PHI,EQ.RATIO= 1.100000

                 INJECTOR  COMB END  THROAT     EXIT
 Pinj/P            1.0000   1.1117   1.8152   50.723
 P, BAR            101.33   91.147   55.821   1.9976
 T, K             3615.12  3590.09  3436.09  2572.25
 RHO, KG/CU M    7.5390 0 6.8337 0 4.4247 0 2.2648-1
 H, KJ/KG        -1520.18 -1594.65 -2230.71 -5757.43
 U, KJ/KG        -2864.19 -2928.44 -3492.30 -6639.45
 G, KJ/KG        -44256.6 -44102.3 -42914.9 -36213.6
 S, KJ/(KG)(K)    11.8216  11.8403  11.8403  11.8403

 M, (1/n)          22.364   22.380   22.646   24.248
 (dLV/dLP)t      -1.04064 -1.04049 -1.03701 -1.01172
 (dLV/dLT)p        1.7152   1.7175   1.6870   1.2956
 Cp, KJ/(KG)(K)    7.0123   7.0551   7.0020   4.7819
 GAMMAs            1.1304   1.1297   1.1264   1.1219
 SON VEL,M/SEC     1232.6   1227.5   1192.1    994.8
 MACH NUMBER        0.000    0.314    1.000    2.926

 PERFORMANCE PARAMETERS

 Ae/At                      2.0000   1.0000   8.0000
 CSTAR, M/SEC               1827.0   1827.0   1827.0
 CF                         0.2112   0.6525   1.5934
 Ivac, M/SEC                3842.0   2250.4   3214.1
 Isp, M/SEC                  385.9   1192.1   2911.1

 MOLE FRACTIONS

 *C              5.133-10 4.445-10 1.606-10 6.137-14
 *CH             2.541-10 2.145-10 7.093-11 1.802-14
 CH2             4.401-10 3.700-10 1.288-10 6.301-14
 CH3             6.345-10 5.347-10 2.040-10 2.761-13
 CH2OH           4.303-10 3.571-10 1.311-10 1.131-13
 CH3O            1.442-10 1.182-10 4.008-11 1.954-14
 CH4             1.688-10 1.410-10 5.506-11 1.333-13
 CH3OH           2.966-11 2.430-11 8.873-12 1.015-14
 CH3OOH          7.778-15 5.930-15 1.446-15 6.198-20
 *CO             1.5825-1 1.5775-1 1.5087-1 9.9807-2
 *CO2            1.4303-1 1.4374-1 1.5421-1 2.2689-1
 COOH            1.9336-5 1.7667-5 1.1045-5 3.1246-7
 *C2             5.004-15 3.890-15 7.801-16 5.369-21
 C2H             1.223-13 9.554-14 2.143-14 4.788-19
 C2H2,acetylene  1.139-12 9.116-13 2.576-13 4.763-17
 C2H2,vinylidene 1.149-14 8.845-15 1.940-15 4.708-20
 CH2CO,ketene    2.510-11 2.032-11 6.566-12 2.988-15
 O(CH)2O         8.923-13 7.085-13 2.152-13 5.325-17
 HO(CO)2OH       1.102-12 8.813-13 3.178-13 2.431-16
 C2H3,vinyl      1.099-15 8.224-16 1.619-16 2.298-21
 CH3CO,acetyl    3.800-14 2.881-14 6.597-15 2.758-19
 C2H4            3.637-16 2.725-16 5.863-17 2.267-21
 CH3CHO,ethanal  9.307-16 6.943-16 1.544-16 6.820-21
 CH3COOH         1.283-15 9.599-16 2.315-16 1.724-20
 OHCH2COOH       7.980-16 5.823-16 1.271-16 3.963-21
 C2O             1.414-10 1.177-10 3.918-11 1.279-14
 C3O2            4.185-13 3.311-13 9.410-14 1.457-17
 *H              1.9173-2 1.9141-2 1.6825-2 4.9345-3
 HCO             1.3838-5 1.2613-5 7.2940-6 1.2520-7
 HCCO            1.722-11 1.396-11 4.227-12 8.597-16
 HO2             2.0476-4 1.9295-4 1.3202-4 4.1723-6
 *H2             6.4257-2 6.4125-2 6.0681-2 4.1340-2
 HCHO,formaldehy 4.3687-7 3.9041-7 2.1463-7 3.3567-9
 HCOOH           3.0624-6 2.7463-6 1.6433-6 4.4622-8
 H2O             4.9037-1 4.9133-1 5.0752-1 6.0074-1
 H2O2            3.5326-5 3.2647-5 2.1258-5 6.0206-7
 *O              1.2278-2 1.2177-2 1.0104-2 1.2428-3
 *OH             7.6526-2 7.5754-2 6.7010-2 1.7687-2
 *O2             3.5836-2 3.5727-2 3.2604-2 7.3621-3
 O3              3.133 -7 2.829 -7 1.456 -7 4.038-10

  * THERMODYNAMIC PROPERTIES FITTED TO 20000.K

 NOTE. WEIGHT FRACTION OF FUEL IN TOTAL FUELS AND OF OXIDANT IN TOTAL OXIDANTS

              THEORETICAL ROCKET PERFORMANCE ASSUMING EQUILIBRIUM

            COMPOSITION DURING EXPANSION FROM FINITE AREA COMBUSTOR

 Pin =  1469.6 PSIA
 Ac/At =  2.0000      Pinj/Pinf =  1.051614
 CASE = test___________

             REACTANT                    WT FRACTION      ENERGY      TEMP
                                          (SEE NOTE)     KJ/KG-MOL      K  
 FUEL        CH4(L)                       1.0000000    -89233.000    111.643
 OXIDANT     O2(L)                        1.0000000    -12979.000     90.170

 O/F=    3.32439  %FUEL= 23.124669  R,EQ.RATIO= 1.200000  PHI,EQ.RATIO= 1.200000

                 INJECTOR  COMB END  THROAT     EXIT
 Pinj/P            1.0000   1.1120   1.8183   53.162
 P, BAR            101.33   91.123   55.724   1.9060
 T, K             3590.34  3565.03  3404.35  2395.21
 RHO, KG/CU M    7.3181 0 6.6324 0 4.2953 0 2.2033-1
 H, KJ/KG        -1598.08 -1674.99 -2331.60 -5953.77
 U, KJ/KG        -2982.65 -3048.89 -3628.95 -6818.82
 G, KJ/KG        -45076.2 -44915.8 -43623.5 -35005.6
 S, KJ/(KG)(K)    12.1097  12.1292  12.1292  12.1292

 M, (1/n)          21.560   21.575   21.818   23.022
 (dLV/dLP)t      -1.03447 -1.03426 -1.02988 -1.00244
 (dLV/dLT)p        1.6096   1.6101   1.5588   1.0650
 Cp, KJ/(KG)(K)    6.5514   6.5798   6.3615   2.8830
 GAMMAs            1.1338   1.1332   1.1308   1.1623
 SON VEL,M/SEC     1252.9   1247.8   1211.2   1002.7
 MACH NUMBER        0.000    0.314    1.000    2.944

 PERFORMANCE PARAMETERS

 Ae/At                      2.0000   1.0000   8.0000
 CSTAR, M/SEC               1852.0   1852.0   1852.0
 CF                         0.2118   0.6540   1.5937
 Ivac, M/SEC                3895.2   2282.3   3244.6
 Isp, M/SEC                  392.2   1211.2   2951.5

 MOLE FRACTIONS

 *C              7.020-10 6.066-10 2.154-10 2.282-14
 *CH             4.147-10 3.496-10 1.159-10 1.373-14
 CH2             8.758-10 7.366-10 2.643-10 1.336-13
 CH3             1.549 -9 1.308 -9 5.309-10 1.829-12
 CH2OH           7.700-10 6.394-10 2.429-10 2.884-13
 CH3O            2.549-10 2.090-10 7.301-11 4.268-14
 CH4             5.001-10 4.192-10 1.790-10 2.482-12
 CH3OH           6.414-11 5.265-11 2.041-11 6.559-14
 CH3OOH          1.166-14 8.883-15 2.187-15 6.754-20
 *CO             1.8517-1 1.8473-1 1.7943-1 1.4561-1
 *CO2            1.2557-1 1.2622-1 1.3505-1 1.8624-1
 COOH            1.8908-5 1.7265-5 1.0687-5 1.8506-7
 *C2             1.077-14 8.367-15 1.709-15 5.837-21
 C2H             3.238-13 2.533-13 5.978-14 1.709-18
 C2H2,acetylene  3.781-12 3.035-12 9.389-13 7.335-16
 C2H2,vinylidene 3.669-14 2.831-14 6.690-15 3.948-19
 CH2CO,ketene    6.270-11 5.088-11 1.769-11 2.638-14
 O(CH)2O         1.628-12 1.294-12 4.107-13 1.739-16
 HO(CO)2OH       1.122-12 8.971-13 3.248-13 2.180-16
 C2H3,vinyl      4.177-15 3.134-15 6.779-16 3.824-20
 CH3CO,acetyl    1.089-13 8.281-14 2.049-14 2.806-18
 C2H4            1.694-15 1.276-15 3.109-16 1.177-19
 CH3CHO,ethanal  3.213-15 2.406-15 5.923-16 1.627-19
 CH3COOH         3.306-15 2.481-15 6.491-16 2.130-19
 OHCH2COOH       1.493-15 1.091-15 2.505-16 1.689-20
 C2O             2.424-10 2.019-10 6.882-11 1.920-14
 C3O2            8.892-13 7.052-13 2.130-13 7.446-17
 *H              2.1098-2 2.1044-2 1.8305-2 3.1361-3
 HCO             1.8138-5 1.6533-5 9.6621-6 1.4426-7
 HCCO            3.520-11 2.857-11 9.037-12 2.585-15
 HO2             1.1788-4 1.1065-4 7.0140-5 2.6761-7
 *H2             8.6511-2 8.6388-2 8.3351-2 7.7291-2
 HCHO,formaldehy 6.8731-7 6.1492-7 3.4944-7 8.7348-9
 HCOOH           3.5984-6 3.2285-6 1.9571-6 6.0667-8
 H2O             4.9333-1 4.9427-1 5.1023-1 5.8246-1
 H2O2            2.4417-5 2.2500-5 1.3883-5 8.6233-8
 *O              8.1621-3 8.0675-3 6.2742-3 1.1677-4
 *OH             6.2151-2 6.1406-2 5.2420-2 4.7757-3
 *O2             1.7822-2 1.7695-2 1.4841-2 3.6411-4
 O3              1.052 -7 9.430 -8 4.208 -8 2.530-12

  * THERMODYNAMIC PROPERTIES FITTED TO 20000.K

 NOTE. WEIGHT FRACTION OF FUEL IN TOTAL FUELS AND OF OXIDANT IN TOTAL OXIDANTS

              THEORETICAL ROCKET PERFORMANCE ASSUMING EQUILIBRIUM

            COMPOSITION DURING EXPANSION FROM FINITE AREA COMBUSTOR

 Pin =  1469.6 PSIA
 Ac/At =  2.0000      Pinj/Pinf =  1.051863
 CASE = test___________

             REACTANT                    WT FRACTION      ENERGY      TEMP
                                          (SEE NOTE)     KJ/KG-MOL      K  
 FUEL        CH4(L)                       1.0000000    -89233.000    111.643
 OXIDANT     O2(L)                        1.0000000    -12979.000     90.170

 O/F=    3.06866  %FUEL= 24.578091  R,EQ.RATIO= 1.300000  PHI,EQ.RATIO= 1.300000

                 INJECTOR  COMB END  THROAT     EXIT
 Pinj/P            1.0000   1.1125   1.8245   56.767
 P, BAR            101.33   91.076   55.535   1.7849
 T, K             3532.45  3506.71  3333.66  2150.38
 RHO, KG/CU M    7.1635 0 6.4903 0 4.2046 0 2.1701-1
 H, KJ/KG        -1673.03 -1751.98 -2425.56 -6086.83
 U, KJ/KG        -3087.49 -3155.26 -3746.36 -6909.36
 G, KJ/KG        -45387.6 -45218.9 -43747.5 -32741.5
 S, KJ/(KG)(K)    12.3751  12.3954  12.3954  12.3954

 M, (1/n)          20.764   20.777   20.985   21.737
 (dLV/dLP)t      -1.02530 -1.02502 -1.02003 -1.00047
 (dLV/dLT)p        1.4535   1.4517   1.3811   1.0130
 Cp, KJ/(KG)(K)    5.7046   5.7113   5.3051   2.4189
 GAMMAs            1.1402   1.1398   1.1395   1.1930
 SON VEL,M/SEC     1270.0   1264.7   1226.8    990.6
 MACH NUMBER        0.000    0.314    1.000    2.999

 PERFORMANCE PARAMETERS

 Ae/At                      2.0000  1.00000   8.0000
 CSTAR, M/SEC               1867.5   1867.5   1867.5
 CF                         0.2128   0.6569   1.5910
 Ivac, M/SEC                3928.7   2303.4   3248.0
 Isp, M/SEC                  397.4   1226.8   2971.1

 MOLE FRACTIONS

 *C              7.750-10 6.661-10 2.194-10 1.766-15
 *CH             5.641-10 4.738-10 1.505-10 2.669-15
 CH2             1.545 -9 1.298 -9 4.686-10 1.078-13
 CH3             3.597 -9 3.043 -9 1.313 -9 7.454-12
 CH2OH           1.272 -9 1.057 -9 4.101-10 4.075-13
 CH3O            4.091-10 3.353-10 1.186-10 4.714-14
 CH4             1.490 -9 1.255 -9 5.977-10 4.349-11
 CH3OH           1.346-10 1.108-10 4.579-11 3.327-13
 CH3OOH          1.523-14 1.158-14 2.793-15 3.048-20
 *CO             2.1061-1 2.1025-1 2.0671-1 1.8125-1
 *CO2            1.0747-1 1.0804-1 1.1477-1 1.5178-1
 COOH            1.6908-5 1.5408-5 9.2383-6 6.7295-8
 *C2             1.837-14 1.421-14 2.796-15 1.068-21
 C2H             7.324-13 5.726-13 1.378-13 1.723-18
 C2H2,acetylene  1.184-11 9.541-12 3.236-12 6.376-15
 C2H2,vinylidene 1.048-13 8.094-14 2.030-14 1.246-18
 CH2CO,ketene    1.489-10 1.212-10 4.537-11 1.535-13
 O(CH)2O         2.726-12 2.169-12 7.110-13 3.303-16
 HO(CO)2OH       1.041-12 8.322-13 2.971-13 1.397-16
 C2H3,vinyl      1.459-14 1.098-14 2.597-15 2.885-19
 CH3CO,acetyl    2.901-13 2.212-13 5.896-14 1.591-17
 C2H4            7.781-15 5.894-15 1.659-15 4.496-18
 CH3CHO,ethanal  1.078-14 8.110-15 2.237-15 2.895-18
 CH3COOH         8.243-15 6.210-15 1.778-15 2.164-18
 OHCH2COOH       2.590-15 1.896-15 4.548-16 5.001-20
 C2O             3.592-10 2.986-10 1.010-10 1.016-14
 C3O2            1.719-12 1.366-12 4.334-13 2.036-16
 *H              2.1411-2 2.1312-2 1.7963-2 1.1248-3
 HCO             2.1845-5 1.9892-5 1.1536-5 9.3203-8
 HCCO            6.411-11 5.205-11 1.684-11 3.299-15
 HO2             5.6849-5 5.2965-5 2.9441-5 6.1175-9
 *H2             1.1481-1 1.1474-1 1.1299-1 1.2596-1
 HCHO,formaldehy 1.0342-6 9.2621-7 5.4198-7 1.6701-8
 HCOOH           4.0300-6 3.6160-6 2.2051-6 6.7227-8
 H2O             4.8785-1 4.8873-1 5.0306-1 5.3918-1
 H2O2            1.4719-5 1.3490-5 7.5713-6 5.7032-9
 (HCOOH)2        1.090-16 7.944-17 1.905-17 1.379-21
 *O              4.5987-3 4.5155-3 3.1271-3 3.8939-6
 *OH             4.5628-2 4.4912-2 3.5913-2 6.9644-4
 *O2             7.5029-3 7.3941-3 5.3997-3 7.0615-6
 O3              2.589 -8 2.291 -8 8.040 -9 2.775-15

  * THERMODYNAMIC PROPERTIES FITTED TO 20000.K

 NOTE. WEIGHT FRACTION OF FUEL IN TOTAL FUELS AND OF OXIDANT IN TOTAL OXIDANTS

              THEORETICAL ROCKET PERFORMANCE ASSUMING EQUILIBRIUM

            COMPOSITION DURING EXPANSION FROM FINITE AREA COMBUSTOR

 Pin =  1469.6 PSIA
 Ac/At =  2.0000      Pinj/Pinf =  1.052250
 CASE = test___________

             REACTANT                    WT FRACTION      ENERGY      TEMP
                                          (SEE NOTE)     KJ/KG-MOL      K  
 FUEL        CH4(L)                       1.0000000    -89233.000    111.643
 OXIDANT     O2(L)                        1.0000000    -12979.000     90.170

 O/F=    2.84947  %FUEL= 25.977576  R,EQ.RATIO= 1.400000  PHI,EQ.RATIO= 1.400000

                 INJECTOR  COMB END  THROAT     EXIT
 Pinj/P            1.0000   1.1134   1.8341   60.102
 P, BAR            101.33   91.004   55.244   1.6859
 T, K             3439.93  3413.51  3222.90  1926.86
 RHO, KG/CU M    7.0767 0 6.4086 0 4.1541 0 2.1657-1
 H, KJ/KG        -1745.19 -1825.72 -2511.84 -6152.34
 U, KJ/KG        -3177.01 -3245.75 -3841.70 -6930.78
 G, KJ/KG        -45150.0 -44969.6 -43246.5 -30506.2
 S, KJ/(KG)(K)    12.6179  12.6392  12.6392  12.6392

 M, (1/n)          19.976   19.987   20.150   20.581
 (dLV/dLP)t      -1.01644 -1.01615 -1.01166 -1.00010
 (dLV/dLT)p        1.3007   1.2975   1.2273   1.0030
 Cp, KJ/(KG)(K)    4.7877   4.7771   4.3060   2.3395
 GAMMAs            1.1503   1.1500   1.1530   1.2101
 SON VEL,M/SEC     1283.3   1277.9   1238.3    970.6
 MACH NUMBER        0.000    0.314    1.000    3.059

 PERFORMANCE PARAMETERS

 Ae/At                      2.0000   1.0000   8.0000
 CSTAR, M/SEC               1872.0   1872.0   1872.0
 CF                         0.2144   0.6615   1.5859
 Ivac, M/SEC                3939.7   2312.2   3231.1
 Isp, M/SEC                  401.3   1238.3   2968.9

 MOLE FRACTIONS

 *C              6.695-10 5.694-10 1.618-10 6.948-17
 *CH             6.212-10 5.177-10 1.482-10 2.714-16
 CH2             2.362 -9 1.977 -9 6.909-10 4.991-14
 CH3             7.827 -9 6.633 -9 3.002 -9 1.975-11
 CH2OH           1.914 -9 1.588 -9 6.155-10 3.968-13
 CH3O            5.865-10 4.797-10 1.671-10 3.511-14
 CH4             4.426 -9 3.752 -9 2.013 -9 5.574-10
 CH3OH           2.717-10 2.242-10 9.851-11 1.265-12
 CH3OOH          1.701-14 1.286-14 2.920-15 9.158-21
 *CO             2.3310-1 2.3282-1 2.3064-1 2.0330-1
 *CO2            9.0323-2 9.0784-2 9.5624-2 1.2997-1
 COOH            1.3756-5 1.2489-5 7.0775-6 2.0938-8
 *C2             2.401-14 1.841-14 3.231-15 8.135-23
 C2H             1.379-12 1.074-12 2.511-13 8.323-19
 C2H2,acetylene  3.455-11 2.794-11 1.026-11 3.232-14
 C2H2,vinylidene 2.619-13 2.023-13 5.212-14 1.981-18
 CH2CO,ketene    3.337-10 2.724-10 1.089-10 6.042-13
 O(CH)2O         4.164-12 3.313-12 1.100-12 4.488-16
 HO(CO)2OH       8.853-13 7.058-13 2.442-13 8.399-17
 C2H3,vinyl      4.597-14 3.467-14 8.773-15 1.128-18
 CH3CO,acetyl    7.092-13 5.418-13 1.532-13 5.562-17
 C2H4            3.482-14 2.656-14 8.671-15 1.012-16
 CH3CHO,ethanal  3.484-14 2.636-14 8.153-15 3.361-17
 CH3COOH         1.982-14 1.499-14 4.701-15 1.645-17
 OHCH2COOH       4.149-15 3.039-15 7.527-16 1.159-19
 C2O             4.526-10 3.747-10 1.204-10 3.182-15
 C3O2            3.018-12 2.400-12 7.844-13 3.708-16
 *H              1.9750-2 1.9582-2 1.5562-2 3.1494-4
 HCO             2.3940-5 2.1744-5 1.2208-5 4.5179-8
 HCCO            1.026-10 8.316-11 2.665-11 2.546-15
 HO2             2.255 -5 2.076 -5 9.538 -6 1.126-10
 *H2             1.4907-1 1.4911-1 1.4937-1 1.7746-1
 HCHO,formaldehy 1.4790-6 1.3254-6 7.9103-7 2.5314-8
 HCOOH           4.2962-6 3.8529-6 2.3426-6 6.7879-8
 H2O             4.7299-1 4.7372-1 4.8481-1 4.8887-1
 H2O2            7.624 -6 6.925 -6 3.382 -6 3.185-10
 (HCOOH)2        1.273-16 9.273-17 2.230-17 1.880-21
 *O              2.1542-3 2.0924-3 1.2192-3 9.9085-8
 *OH             2.9905-2 2.9254-2 2.1190-2 8.5417-5
 *O2             2.6364-3 2.5675-3 1.5442-3 1.1867-7
 O3              4.544 -9 3.937 -9 9.818-10 2.241-18

  * THERMODYNAMIC PROPERTIES FITTED TO 20000.K

 NOTE. WEIGHT FRACTION OF FUEL IN TOTAL FUELS AND OF OXIDANT IN TOTAL OXIDANTS

              THEORETICAL ROCKET PERFORMANCE ASSUMING EQUILIBRIUM

            COMPOSITION DURING EXPANSION FROM FINITE AREA COMBUSTOR

 Pin =  1469.6 PSIA
 Ac/At =  2.0000      Pinj/Pinf =  1.052733
 CASE = test___________

             REACTANT                    WT FRACTION      ENERGY      TEMP
                                          (SEE NOTE)     KJ/KG-MOL      K  
 FUEL        CH4(L)                       1.0000000    -89233.000    111.643
 OXIDANT     O2(L)                        1.0000000    -12979.000     90.170

 O/F=    2.65951  %FUEL= 27.326070  R,EQ.RATIO= 1.500000  PHI,EQ.RATIO= 1.500000

                 INJECTOR  COMB END  THROAT     EXIT
 Pinj/P            1.0000   1.1145   1.8457   62.899
 P, BAR            101.33   90.914   54.898   1.6109
 T, K             3317.55  3290.32  3081.15  1735.76
 RHO, KG/CU M    7.0547 0 6.3851 0 4.1427 0 2.1842-1
 H, KJ/KG        -1814.73 -1896.26 -2589.44 -6169.22
 U, KJ/KG        -3251.02 -3320.10 -3914.60 -6906.74
 G, KJ/KG        -44407.4 -44212.6 -42215.7 -28492.6
 S, KJ/(KG)(K)    12.8386  12.8609  12.8609  12.8609

 M, (1/n)          19.205   19.214   19.332   19.568
 (dLV/dLP)t      -1.01000 -1.00975 -1.00640 -1.00002
 (dLV/dLT)p        1.1873   1.1840   1.1282   1.0007
 Cp, KJ/(KG)(K)    4.0607   4.0423   3.6213   2.3432
 GAMMAs            1.1632   1.1632   1.1693   1.2218
 SON VEL,M/SEC     1292.5   1287.0   1244.8    949.3
 MACH NUMBER        0.000    0.314    1.000    3.109

 PERFORMANCE PARAMETERS

 Ae/At                      2.0000   1.0000   8.0000
 CSTAR, M/SEC               1866.5   1866.5   1866.5
 CF                         0.2163   0.6669   1.5811
 Ivac, M/SEC                3929.8   2309.3   3201.0
 Isp, M/SEC                  403.8   1244.8   2951.1

 MOLE FRACTIONS

 *C              4.471-10 3.743-10 8.606-11 1.916-18
 *CH             5.452-10 4.488-10 1.094-10 1.949-17
 CH2             3.068 -9 2.553 -9 8.281-10 1.697-14
 CH3             1.560 -8 1.324 -8 6.149 -9 4.068-11
 CH2OH           2.587 -9 2.140 -9 8.086-10 3.158-13
 CH3O            7.415-10 6.040-10 2.014-10 2.127-14
 CH4             1.2807-8 1.0936-8 6.5806-9 5.8936-9
 CH3OH           5.188-10 4.292-10 1.983-10 4.085-12
 CH3OOH          1.610-14 1.208-14 2.489-15 2.259-21
 *CO             2.5159-1 2.5136-1 2.4976-1 2.1642-1
 *CO2            7.5500-2 7.5880-2 7.9516-2 1.1690-1
 COOH            1.0250-5 9.2546-6 4.8719-6 6.1410-9
 *C2             2.358-14 1.782-14 2.593-15 3.871-24
 C2H             2.115-12 1.636-12 3.524-13 2.695-19
 C2H2,acetylene  9.168-11 7.433-11 2.888-11 1.204-13
 C2H2,vinylidene 5.583-13 4.301-13 1.093-13 2.145-18
 CH2CO,ketene    6.961-10 5.697-10 2.394-10 1.920-12
 O(CH)2O         5.776-12 4.588-12 1.513-12 5.193-16
 HO(CO)2OH       7.003-13 5.564-13 1.851-13 5.156-17
 C2H3,vinyl      1.267-13 9.564-14 2.503-14 3.031-18
 CH3CO,acetyl    1.561-12 1.194-12 3.497-13 1.496-16
 C2H4            1.469-13 1.130-13 4.216-14 1.664-15
 C2H4O,ethylen-o 1.370-16 1.005-16 2.552-17 8.122-21
 CH3CHO,ethanal  1.061-13 8.071-14 2.765-14 3.070-16
 CH3COOH         4.537-14 3.449-14 1.176-14 1.083-16
 OHCH2COOH       6.120-15 4.484-15 1.133-15 2.436-19
 C2H5            3.637-16 2.599-16 6.452-17 6.907-20
 C2O             4.819-10 3.960-10 1.160-10 7.611-16
 C3O2            4.800-12 3.815-12 1.258-12 5.547-16
 *H              1.6453-2 1.6217-2 1.1857-2 7.7140-5
 HCO             2.3783-5 2.1508-5 1.1428-5 1.8876-8
 HCCO            1.428-10 1.152-10 3.537-11 1.507-15
 HO2             7.446 -6 6.743 -6 2.459 -6 1.915-12
 *H2             1.8751-1 1.8770-1 1.8990-1 2.2798-1
 HCHO,formaldehy 1.9957-6 1.7884-6 1.0755-6 3.3862-8
 HCOOH           4.3729-6 3.9177-6 2.3597-6 6.6644-8
 H2O             4.4971-1 4.5022-1 4.5731-1 4.3862-1
 H2O2            3.420 -6 3.069 -6 1.265 -6 1.674-11
 (HCOOH)2        1.374-16 9.999-17 2.394-17 2.539-21
 *O              8.4446-4 8.0802-4 3.8003-4 2.2375-9
 *OH             1.7551-2 1.7020-2 1.0894-2 9.6734-6
 *O2             7.8618-4 7.5348-4 3.6009-4 1.9222-9
 O3              5.845-10 4.921-10 8.160-11 1.649-21

  * THERMODYNAMIC PROPERTIES FITTED TO 20000.K

 NOTE. WEIGHT FRACTION OF FUEL IN TOTAL FUELS AND OF OXIDANT IN TOTAL OXIDANTS

              THEORETICAL ROCKET PERFORMANCE ASSUMING EQUILIBRIUM

            COMPOSITION DURING EXPANSION FROM FINITE AREA COMBUSTOR

 Pin =  1469.6 PSIA
 Ac/At =  2.0000      Pinj/Pinf =  1.053241
 CASE = test___________

             REACTANT                    WT FRACTION      ENERGY      TEMP
                                          (SEE NOTE)     KJ/KG-MOL      K  
 FUEL        CH4(L)                       1.0000000    -89233.000    111.643
 OXIDANT     O2(L)                        1.0000000    -12979.000     90.170

 O/F=    2.49329  %FUEL= 28.626312  R,EQ.RATIO= 1.600000  PHI,EQ.RATIO= 1.600000

                 INJECTOR  COMB END  THROAT     EXIT
 Pinj/P            1.0000   1.1157   1.8575   65.226
 P, BAR            101.33   90.819   54.549   1.5534
 T, K             3174.55  3146.59  2922.07  1571.99
 RHO, KG/CU M    7.0895 0 6.4132 0 4.1661 0 2.2202-1
 H, KJ/KG        -1881.78 -1963.69 -2658.20 -6153.31
 U, KJ/KG        -3311.00 -3379.82 -3967.56 -6853.00
 G, KJ/KG        -43271.0 -43061.9 -40823.8 -26685.4
 S, KJ/(KG)(K)    13.0378  13.0612  13.0612  13.0612

 M, (1/n)          18.468   18.475   18.555   18.680
 (dLV/dLP)t      -1.00593 -1.00574 -1.00344 -1.00000
 (dLV/dLT)p        1.1139   1.1111   1.0710   1.0002
 Cp, KJ/(KG)(K)    3.5658   3.5460   3.2080   2.3735
 GAMMAs            1.1775   1.1778   1.1860   1.2309
 SON VEL,M/SEC     1297.3   1291.5   1246.1    928.0
 MACH NUMBER        0.000    0.313    1.000    3.150

 PERFORMANCE PARAMETERS

 Ae/At                      2.0000   1.0000   8.0000
 CSTAR, M/SEC               1853.1   1853.1   1853.1
 CF                         0.2184   0.6725   1.5773
 Ivac, M/SEC                3903.5   2296.9   3162.2
 Isp, M/SEC                  404.7   1246.1   2922.9

 MOLE FRACTIONS

 *C              2.344-10 1.923-10 3.426-11 3.993-20
 *CH             3.848-10 3.117-10 6.227-11 1.077-18
 CH2             3.386 -9 2.792 -9 8.165-10 4.654-15
 CH3             2.824 -8 2.395 -8 1.121 -8 7.198-11
 CH2OH           3.145 -9 2.590 -9 9.373-10 2.209-13
 CH3O            8.294-10 6.718-10 2.104-10 1.128-14
 CH4             3.5524-8 3.0575-8 2.0488-8 5.7044-8
 CH3OH           9.318-10 7.727-10 3.721-10 1.214-11
 CH3OOH          1.307-14 9.705-15 1.779-15 4.868-22
 *CO             2.6596-1 2.6575-1 2.6411-1 2.2380-1
 *CO2            6.3546-2 6.3880-2 6.6978-2 1.0953-1
 COOH            7.1035-6 6.3711-6 3.0911-6 1.7216-9
 *C2             1.760-14 1.304-14 1.497-15 1.305-25
 C2H             2.646-12 2.025-12 3.871-13 6.658-20
 C2H2,acetylene  2.189-10 1.778-10 7.152-11 3.762-13
 C2H2,vinylidene 1.008-12 7.732-13 1.875-13 1.818-18
 CH2CO,ketene    1.346 -9 1.104 -9 4.813-10 5.454-12
 O(CH)2O         7.325-12 5.805-12 1.879-12 5.513-16
 HO(CO)2OH       5.280-13 4.179-13 1.339-13 3.275-17
 C2H3,vinyl      3.022-13 2.279-13 5.998-14 6.509-18
 CH3CO,acetyl    3.083-12 2.358-12 7.022-13 3.480-16
 C2H4            5.728-13 4.440-13 1.862-13 2.339-14
 C2H4O,ethylen-o 3.188-16 2.343-16 6.172-17 2.884-20
 CH3CHO,ethanal  3.007-13 2.301-13 8.629-14 2.505-15
 CH3COOH         9.861-14 7.533-14 2.781-14 6.800-16
 OHCH2COOH       8.392-15 6.148-15 1.578-15 4.985-19
 C2H5            1.404-15 1.009-15 2.732-16 6.645-19
 C2H6            3.177-16 2.312-16 8.777-17 5.204-17
 C2O             4.382-10 3.566-10 9.278-11 1.512-16
 C3H3,2-propynl  1.432-16 9.969-17 2.044-17 1.947-21
 C3O2            6.974-12 5.535-12 1.815-12 7.488-16
 *H              1.2441-2 1.2169-2 8.0548-3 1.6977-5
 HCO             2.1567-5 1.9391-5 9.6079-6 7.1068-9
 HCCO            1.734-10 1.391-10 3.995-11 7.532-16
 HO2             2.108 -6 1.871 -6 5.312 -7 2.938-14
 *H2             2.2746-1 2.2776-1 2.3125-1 2.7619-1
 HCHO,formaldehy 2.5421-6 2.2769-6 1.3678-6 4.2176-8
 HCOOH           4.2876-6 3.8365-6 2.2858-6 6.5142-8
 H2O             4.2070-1 4.2097-1 4.2442-1 3.9046-1
 H2O2            1.359 -6 1.202 -6 4.122 -7 8.164-13
 (HCOOH)2        1.398-16 1.016-16 2.425-17 3.534-21
 *O              2.837 -4 2.665 -4 9.890 -5 4.446-11
 *OH             9.3558-3 8.9766-3 5.0097-3 1.0102-6
 *O2             2.053 -4 1.930 -4 7.214 -5 2.887-11
 O3              5.830-11 4.744-11 5.082-12 1.043-24

  * THERMODYNAMIC PROPERTIES FITTED TO 20000.K

 NOTE. WEIGHT FRACTION OF FUEL IN TOTAL FUELS AND OF OXIDANT IN TOTAL OXIDANTS

              THEORETICAL ROCKET PERFORMANCE ASSUMING EQUILIBRIUM

            COMPOSITION DURING EXPANSION FROM FINITE AREA COMBUSTOR

 Pin =  1469.6 PSIA
 Ac/At =  2.0000      Pinj/Pinf =  1.053731
 CASE = test___________

             REACTANT                    WT FRACTION      ENERGY      TEMP
                                          (SEE NOTE)     KJ/KG-MOL      K  
 FUEL        CH4(L)                       1.0000000    -89233.000    111.643
 OXIDANT     O2(L)                        1.0000000    -12979.000     90.170

 O/F=    2.34663  %FUEL= 29.880845  R,EQ.RATIO= 1.700000  PHI,EQ.RATIO= 1.700000

                 INJECTOR  COMB END  THROAT     EXIT
 Pinj/P            1.0000   1.1168   1.8685   67.182
 P, BAR            101.33   90.728   54.228   1.5082
 T, K             3020.10  2991.64  2756.74  1430.19
 RHO, KG/CU M    7.1727 0 6.4854 0 4.2189 0 2.2698-1
 H, KJ/KG        -1946.47 -2028.17 -2718.73 -6114.88
 U, KJ/KG        -3359.11 -3427.13 -4004.09 -6779.34
 G, KJ/KG        -41861.6 -41640.3 -39220.6 -25051.9
 S, KJ/(KG)(K)    13.2165  13.2410  13.2410  13.2410

 M, (1/n)          17.776   17.780   17.832   17.896
 (dLV/dLP)t      -1.00344 -1.00331 -1.00181 -1.00000
 (dLV/dLT)p        1.0682   1.0660   1.0387   1.0001
 Cp, KJ/(KG)(K)    3.2451   3.2267   2.9660   2.4186
 GAMMAs            1.1919   1.1924   1.2016   1.2378
 SON VEL,M/SEC     1297.6   1291.6   1242.8    906.9
 MACH NUMBER        0.000    0.313    1.000    3.184

 PERFORMANCE PARAMETERS

 Ae/At                      2.0000   1.0000   8.0000
 CSTAR, M/SEC               1834.0   1834.0   1834.0
 CF                         0.2204   0.6776   1.5744
 Ivac, M/SEC                3865.1   2277.0   3117.5
 Isp, M/SEC                  404.2   1242.8   2887.4

 MOLE FRACTIONS

 *C              9.905-11 7.931-11 1.068-11 6.395-22
 *CH             2.234-10 1.775-10 2.843-11 4.705-20
 CH2             3.223 -9 2.629 -9 6.812-10 1.072-15
 CH3             4.671 -8 3.958 -8 1.848 -8 1.155-10
 CH2OH           3.478 -9 2.851 -9 9.797-10 1.405-13
 CH3O            8.333-10 6.704-10 1.956-10 5.411-15
 CH4             9.4680-8 8.2178-8 6.1193-8 5.3946-7
 CH3OH           1.585 -9 1.318 -9 6.595-10 3.477-11
 CH3OOH          9.312-15 6.832-15 1.104-15 9.349-23
 *CO             2.7681-1 2.7659-1 2.7460-1 2.2726-1
 *CO2            5.4249-2 5.4565-2 5.7538-2 1.0607-1
 COOH            4.649 -6 4.139 -6 1.846 -6 4.599-10
 *C2             1.027-14 7.433-15 6.538-16 3.256-27
 C2H             2.753-12 2.081-12 3.455-13 1.330-20
 C2H2,acetylene  4.740-10 3.855-10 1.588-10 1.061-12
 C2H2,vinylidene 1.566-12 1.193-12 2.713-13 1.294-18
 CH2CO,ketene    2.437 -9 2.002 -9 9.000-10 1.464-11
 O(CH)2O         8.627-12 6.818-12 2.157-12 5.563-16
 HO(CO)2OH       3.875-13 3.056-13 9.505-14 2.146-17
 C2H3,vinyl      6.307-13 4.748-13 1.238-13 1.211-17
 CH3CO,acetyl    5.527-12 4.226-12 1.270-12 7.462-16
 C2H4            2.071-12 1.619-12 7.573-13 3.084-13
 C2H4O,ethylen-o 6.715-16 4.941-16 1.341-16 9.477-20
 CH3CHO,ethanal  7.999-13 6.160-13 2.517-13 1.965-14
 CH3COOH         2.056-13 1.580-13 6.321-14 4.306-15
 OHCH2COOH       1.090-14 7.985-15 2.087-15 1.028-18
 C2H5            4.848-15 3.501-15 1.023-15 5.771-18
 C2H6            1.746-15 1.288-15 5.811-16 2.289-15
 C2H5OH          1.440-16 1.019-16 3.167-17 1.419-18
 C2O             3.474-10 2.793-10 6.362-11 2.575-17
 C3H3,2-propynl  4.676-16 3.261-16 6.942-17 9.874-21
 C3O2            9.413-12 7.458-12 2.420-12 9.544-16
 *H              8.6260-3 8.3615-3 4.9648-3 3.3784-6
 HCO             1.8073-5 1.6138-5 7.4004-6 2.4497-9
 HCCO            1.870-10 1.489-10 3.953-11 3.313-16
 HO2             5.247 -7 4.557 -7 9.977 -8 3.916-16
 *H2             2.6664-1 2.6701-1 2.7107-1 3.2175-1
 HCHO,formaldehy 3.0815-6 2.7578-6 1.6491-6 5.0250-8
 HCOOH           4.0936-6 3.6586-6 2.1607-6 6.3955-8
 H2O             3.8891-1 3.8897-1 3.8968-1 3.4491-1
 H2O2            4.886 -7 4.251 -7 1.206 -7 3.600-14
 (HCOOH)2        1.370-16 9.946-17 2.389-17 5.144-21
 *O              8.348 -5 7.679 -5 2.221 -5 7.568-13
 *OH             4.5943-3 4.3548-3 2.1043-3 9.5929-8
 *O2             4.809 -5 4.426 -5 1.284 -5 3.839-13
 O3              4.725-12 3.701-12 2.530-13 5.249-28

  * THERMODYNAMIC PROPERTIES FITTED TO 20000.K

 NOTE. WEIGHT FRACTION OF FUEL IN TOTAL FUELS AND OF OXIDANT IN TOTAL OXIDANTS

              THEORETICAL ROCKET PERFORMANCE ASSUMING EQUILIBRIUM

            COMPOSITION DURING EXPANSION FROM FINITE AREA COMBUSTOR

 Pin =  1469.6 PSIA
 Ac/At =  2.0000      Pinj/Pinf =  1.054182
 CASE = test___________

             REACTANT                    WT FRACTION      ENERGY      TEMP
                                          (SEE NOTE)     KJ/KG-MOL      K  
 FUEL        CH4(L)                       1.0000000    -89233.000    111.643
 OXIDANT     O2(L)                        1.0000000    -12979.000     90.170

 O/F=    2.21626  %FUEL= 31.092038  R,EQ.RATIO= 1.800000  PHI,EQ.RATIO= 1.800000

                 INJECTOR  COMB END  THROAT     EXIT
 Pinj/P            1.0000   1.1178   1.8784   68.828
 P, BAR            101.33   90.645   53.943   1.4721
 T, K             2861.08  2832.39  2592.20  1306.40
 RHO, KG/CU M    7.2977 0 6.5958 0 4.2968 0 2.3310-1
 H, KJ/KG        -2008.93 -2089.89 -2772.05 -6060.40
 U, KJ/KG        -3397.39 -3464.18 -4027.48 -6691.94
 G, KJ/KG        -40277.6 -40047.4 -37510.7 -23567.7
 S, KJ/(KG)(K)    13.3756  13.4012  13.4012  13.4012

 M, (1/n)          17.133   17.136   17.168   17.199
 (dLV/dLP)t      -1.00195 -1.00186 -1.00092 -1.00002
 (dLV/dLT)p        1.0399   1.0383   1.0205   1.0002
 Cp, KJ/(KG)(K)    3.0406   3.0245   2.8278   2.4783
 GAMMAs            1.2058   1.2064   1.2157   1.2424
 SON VEL,M/SEC     1293.9   1287.6   1235.4    885.8
 MACH NUMBER        0.000    0.313    1.000    3.214

 PERFORMANCE PARAMETERS

 Ae/At                      2.0000   1.0000   8.0000
 CSTAR, M/SEC               1810.7   1810.7   1810.7
 CF                         0.2222   0.6823   1.5721
 Ivac, M/SEC                3817.6   2251.6   3068.4
 Isp, M/SEC                  402.4   1235.4   2846.6

 MOLE FRACTIONS

 *C              3.452-11 2.691-11 2.701-12 7.946-24
 *CH             1.092-10 8.489-11 1.077-11 1.652-21
 CH2             2.696 -9 2.173 -9 4.948-10 2.126-16
 CH3             7.167 -8 6.067 -8 2.816 -8 1.734-10
 CH2OH           3.557 -9 2.899 -9 9.437-10 8.283-14
 CH3O            7.656-10 6.114-10 1.657-10 2.390-15
 CH4             2.4574-7 2.1527-7 1.7862-7 5.1823-6
 CH3OH           2.589 -9 2.158 -9 1.125 -9 9.837-11
 CH3OOH          5.946-15 4.308-15 6.126-16 1.614-23
 *CO             2.8493-1 2.8467-1 2.8224-1 2.2788-1
 *CO2            4.7104-2 4.7420-2 5.0477-2 1.0545-1
 COOH            2.904 -6 2.565 -6 1.052 -6 1.165-10
 *C2             4.824-15 3.401-15 2.255-16 6.175-29
 C2H             2.444-12 1.821-12 2.599-13 2.224-21
 C2H2,acetylene  9.487-10 7.725-10 3.247-10 2.821-12
 C2H2,vinylidene 2.137-12 1.616-12 3.419-13 8.062-19
 CH2CO,ketene    4.192 -9 3.451 -9 1.599 -9 3.832-11
 O(CH)2O         9.600-12 7.565-12 2.342-12 5.435-16
 HO(CO)2OH       2.808-13 2.208-13 6.716-14 1.441-17
 C2H3,vinyl      1.178-12 8.850-13 2.273-13 2.046-17
 CH3CO,acetyl    9.184-12 7.021-12 2.127-12 1.528-15
 C2H4            7.077-12 5.580-12 2.913-12 4.035-12
 C2H4O,ethylen-o 1.309-15 9.649-16 2.698-16 3.002-19
 CH3CHO,ethanal  2.033-12 1.577-12 7.039-13 1.549-13
 CH3COOH         4.183-13 3.236-13 1.412-13 2.837-14
 OHCH2COOH       1.366-14 1.002-14 2.687-15 2.171-18
 C2H5            1.532-14 1.112-14 3.501-15 4.803-17
 C2H6            9.160-15 6.854-15 3.689-15 1.035-13
 C2H5OH          4.820-16 3.443-16 1.206-16 2.215-17
 C2O             2.449-10 1.943-10 3.848-11 3.824-18
 C3H3,2-propynl  1.360-15 9.499-16 2.090-16 4.620-20
 C3H4,propyne    2.145-16 1.509-16 4.615-17 1.851-18
 C3O2            1.201-11 9.503-12 3.051-12 1.177-15
 *H              5.5372-3 5.3131-3 2.8155-3 6.0993-7
 HCO             1.416 -5 1.255 -5 5.307 -6 7.795-10
 HCCO            1.826-10 1.442-10 3.519-11 1.315-16
 HO2             1.166 -7 9.881 -8 1.659 -8 4.416-18
 *H2             3.0368-1 3.0409-1 3.0827-1 3.6469-1
 HCHO,formaldehy 3.5924-6 3.2124-6 1.9118-6 5.8131-8
 HCOOH           3.8415-6 3.4301-6 2.0149-6 6.3255-8
 H2O             3.5660-1 3.5649-1 3.5536-1 3.0197-1
 H2O2            1.610 -7 1.376 -7 3.220 -8 1.409-15
 (HCOOH)2        1.319-16 9.575-17 2.339-17 7.854-21
 *O              2.180 -5 1.960 -5 4.383 -6 1.083-14
 *OH             2.0973-3 1.9616-3 8.1724-4 8.2014-9
 *O2             1.022 -5 9.187 -6 2.057 -6 4.385-15
 O3              3.189-13 2.397-13 1.037-14 2.003-31

  * THERMODYNAMIC PROPERTIES FITTED TO 20000.K

 NOTE. WEIGHT FRACTION OF FUEL IN TOTAL FUELS AND OF OXIDANT IN TOTAL OXIDANTS

              THEORETICAL ROCKET PERFORMANCE ASSUMING EQUILIBRIUM

            COMPOSITION DURING EXPANSION FROM FINITE AREA COMBUSTOR

 Pin =  1469.6 PSIA
 Ac/At =  2.0000      Pinj/Pinf =  1.054584
 CASE = test___________

             REACTANT                    WT FRACTION      ENERGY      TEMP
                                          (SEE NOTE)     KJ/KG-MOL      K  
 FUEL        CH4(L)                       1.0000000    -89233.000    111.643
 OXIDANT     O2(L)                        1.0000000    -12979.000     90.170

 O/F=    2.09961  %FUEL= 32.262099  R,EQ.RATIO= 1.900000  PHI,EQ.RATIO= 1.900000

                 INJECTOR  COMB END  THROAT     EXIT
 Pinj/P            1.0000   1.1187   1.8869   70.196
 P, BAR            101.33   90.571   53.698   1.4435
 T, K             2702.18  2673.58  2432.52  1197.94
 RHO, KG/CU M    7.4595 0 6.7399 0 4.3968 0 2.4023-1
 H, KJ/KG        -2069.27 -2149.05 -2819.16 -5994.18
 U, KJ/KG        -3427.60 -3492.84 -4040.45 -6595.04
 G, KJ/KG        -38592.4 -38357.0 -35762.5 -22217.8
 S, KJ/(KG)(K)    13.5162  13.5429  13.5429  13.5429

 M, (1/n)          16.540   16.542   16.561   16.577
 (dLV/dLP)t      -1.00107 -1.00101 -1.00045 -1.00021
 (dLV/dLT)p        1.0227   1.0216   1.0105   1.0024
 Cp, KJ/(KG)(K)    2.9136   2.9000   2.7536   2.5649
 GAMMAs            1.2186   1.2193   1.2281   1.2443
 SON VEL,M/SEC     1286.6   1280.0   1224.7    864.6
 MACH NUMBER        0.000    0.312    1.000    3.240

 PERFORMANCE PARAMETERS

 Ae/At                      2.0000   1.0000   8.0000
 CSTAR, M/SEC               1784.4   1784.4   1784.4
 CF                         0.2239   0.6863   1.5702
 Ivac, M/SEC                3763.5   2221.9   3016.2
 Isp, M/SEC                  399.5   1224.7   2801.8

 MOLE FRACTIONS

 *C              1.010-11 7.643-12 5.666-13 7.823-26
 *CH             4.572-11 3.473-11 3.464-12 4.761-23
 CH2             2.017 -9 1.605 -9 3.198-10 3.705-17
 CH3             1.037 -7 8.767 -8 4.046 -8 2.489-10
 CH2OH           3.410 -9 2.763 -9 8.522-10 4.585-14
 CH3O            6.533-10 5.177-10 1.305-10 9.852-16
 CH4             6.3137-7 5.5878-7 5.1935-7 5.1489-5
 CH3OH           4.119 -9 3.446 -9 1.877 -9 2.784-10
 CH3OOH          3.462-15 2.476-15 3.102-16 2.529-24
 *CO             2.9101-1 2.9072-1 2.8786-1 2.2636-1
 *CO2            4.1607-2 4.1934-2 4.5172-2 1.0696-1
 COOH            1.742 -6 1.526 -6 5.753 -7 2.801-11
 *C2             1.868-15 1.280-15 6.336-17 9.185-31
 C2H             1.893-12 1.388-12 1.696-13 3.205-22
 C2H2,acetylene  1.789 -9 1.459 -9 6.263-10 7.271-12
 C2H2,vinylidene 2.622-12 1.967-12 3.861-13 4.532-19
 CH2CO,ketene    6.963 -9 5.745 -9 2.753 -9 9.965-11
 O(CH)2O         1.024-11 8.047-12 2.445-12 5.200-16
 HO(CO)2OH       2.027-13 1.590-13 4.762-14 9.847-18
 C2H3,vinyl      2.018-12 1.512-12 3.825-13 3.241-17
 CH3CO,acetyl    1.443-11 1.103-11 3.380-12 3.053-15
 C2H4            2.337-11 1.861-11 1.089-11 5.394-11
 C2H4O,ethylen-o 2.417-15 1.785-15 5.167-16 9.382-19
 CH3CHO,ethanal  5.039-12 3.938-12 1.932-12 1.252-12
 CH3COOH         8.452-13 6.589-13 3.160-13 1.969-13
 OHCH2COOH       1.681-14 1.236-14 3.429-15 4.729-18
 C2H5            4.552-14 3.326-14 1.132-14 3.960-16
 C2H6            4.711-14 3.582-14 2.318-14 4.971-12
 C2H5OH          1.566-15 1.131-15 4.499-16 3.594-16
 C2O             1.560-10 1.220-10 2.094-11 5.041-19
 C3H3,2-propynl  3.627-15 2.538-15 5.784-16 2.076-19
 C3H4,allene     3.948-16 2.795-16 9.253-17 9.547-18
 C3H4,propyne    8.688-16 6.172-16 2.112-16 3.108-17
 C3H6,propylene  1.260-17 8.669-18 3.746-18 1.089-16
 C3O2            1.473-11 1.163-11 3.703-12 1.428-15
 *H              3.3145-3 3.1455-3 1.4830-3 1.0068-7
 HCO             1.047 -5 9.201 -6 3.582 -6 2.309-10
 HCCO            1.640-10 1.284-10 2.878-11 4.795-17
 HO2             2.323 -8 1.919 -8 2.459 -9 4.193-20
 *H2             3.3802-1 3.3843-1 3.4256-1 4.0508-1
 HCHO,formaldehy 4.0671-6 3.6343-6 2.1556-6 6.5850-8
 HCOOH           3.5682-6 3.1841-6 1.8674-6 6.3012-8
 H2O             3.2513-1 3.2492-1 3.2263-1 2.6155-1
 H2O2            4.887 -8 4.099 -8 7.896 -9 4.869-17
 (HCOOH)2        1.265-16 9.198-17 2.309-17 1.254-20
 *O              5.084 -6 4.456 -6 7.659 -7 1.305-16
 *OH             8.942 -4 8.243 -4 2.951 -4 6.314-10
 *O2             1.974 -6 1.731 -6 2.975 -7 4.267-17
 O3              1.807-14 1.299-14 3.533-16 5.736-35

  * THERMODYNAMIC PROPERTIES FITTED TO 20000.K

 NOTE. WEIGHT FRACTION OF FUEL IN TOTAL FUELS AND OF OXIDANT IN TOTAL OXIDANTS

              THEORETICAL ROCKET PERFORMANCE ASSUMING EQUILIBRIUM

            COMPOSITION DURING EXPANSION FROM FINITE AREA COMBUSTOR

 Pin =  1469.6 PSIA
 Ac/At =  2.0000      Pinj/Pinf =  1.054938
 CASE = test___________

             REACTANT                    WT FRACTION      ENERGY      TEMP
                                          (SEE NOTE)     KJ/KG-MOL      K  
 FUEL        CH4(L)                       1.0000000    -89233.000    111.643
 OXIDANT     O2(L)                        1.0000000    -12979.000     90.170

 O/F=    1.99463  %FUEL= 33.393088  R,EQ.RATIO= 2.000000  PHI,EQ.RATIO= 2.000000

                 INJECTOR  COMB END  THROAT     EXIT
 Pinj/P            1.0000   1.1195   1.8945   71.192
 P, BAR            101.33   90.505   53.485   1.4233
 T, K             2546.49  2518.23  2279.76  1104.90
 RHO, KG/CU M    7.6552 0 6.9150 0 4.5167 0 2.4834-1
 H, KJ/KG        -2127.59 -2205.82 -2861.09 -5918.61
 U, KJ/KG        -3451.20 -3514.65 -4045.25 -6491.71
 G, KJ/KG        -36858.9 -36621.8 -34018.0 -21019.0
 S, KJ/(KG)(K)    13.6389  13.6667  13.6667  13.6667

 M, (1/n)          15.996   15.997   16.007   16.030
 (dLV/dLP)t      -1.00057 -1.00053 -1.00022 -1.00200
 (dLV/dLT)p        1.0125   1.0117   1.0052   1.0257
 Cp, KJ/(KG)(K)    2.8386   2.8274   2.7184   2.8090
 GAMMAs            1.2302   1.2310   1.2389   1.2381
 SON VEL,M/SEC     1276.1   1269.3   1211.2    842.3
 MACH NUMBER        0.000    0.312    1.000    3.269

 PERFORMANCE PARAMETERS

 Ae/At                      2.0000   1.0000   8.0000
 CSTAR, M/SEC               1755.7   1755.7   1755.7
 CF                         0.2253   0.6899   1.5683
 Ivac, M/SEC                3704.3   2188.9   2961.7
 Isp, M/SEC                  395.6   1211.2   2753.6

 MOLE FRACTIONS

 *C              2.506-12 1.839-12 9.982-14 7.077-28
 *CH             1.661-11 1.231-11 9.598-13 1.269-24
 CH2             1.368 -9 1.073 -9 1.866-10 6.081-18
 CH3             1.433 -7 1.211 -7 5.567 -8 3.442-10
 CH2OH           3.099 -9 2.496 -9 7.299-10 2.452-14
 CH3O            5.240-10 4.121-10 9.669-11 3.930-16
 CH4             1.6306-6 1.4595-6 1.5293-6 5.0475-4
 CH3OH           6.464 -9 5.430 -9 3.106 -9 7.740-10
 CH3OOH          1.861-15 1.313-15 1.451-16 3.813-25
 *CO             2.9560-1 2.9528-1 2.9202-1 2.2329-1
 *CO2            3.7352-2 3.7696-2 4.1165-2 1.0987-1
 COOH            1.007 -6 8.743 -7 3.030 -7 6.632-12
 *C2             6.060-16 4.029-16 1.478-17 1.242-32
 C2H             1.301-12 9.389-13 9.792-14 4.322-23
 C2H2,acetylene  3.236 -9 2.643 -9 1.162 -9 1.815-11
 C2H2,vinylidene 2.944-12 2.191-12 3.989-13 2.405-19
 CH2CO,ketene    1.132 -8 9.366 -9 4.656 -9 2.549-10
 O(CH)2O         1.059-11 8.300-12 2.483-12 4.926-16
 HO(CO)2OH       1.464-13 1.147-13 3.401-14 6.865-18
 C2H3,vinyl      3.230-12 2.415-12 6.035-13 4.891-17
 CH3CO,acetyl    2.179-11 1.667-11 5.189-12 5.953-15
 C2H4            7.620-11 6.135-11 4.051-11 7.050-10
 C2H4O,ethylen-o 4.304-15 3.188-15 9.611-16 2.862-18
 CH3CHO,ethanal  1.239-11 9.773-12 5.307-12 9.987-12
 CH3COOH         1.722-12 1.354-12 7.203-13 1.379-12
 OHCH2COOH       2.057-14 1.517-14 4.392-15 1.044-17
 C2H5            1.303-13 9.585-14 3.552-14 3.148-15
 C2H6            2.436-13 1.886-13 1.483-13 2.348-10
 C2H5OH          5.056-15 3.695-15 1.687-15 5.747-15
 C2O             9.073-11 6.995-11 1.037-11 6.350-20
 C3H3,2-propynl  9.100-15 6.386-15 1.514-15 8.935-19
 C3H4,allene     1.519-15 1.086-15 4.043-16 1.471-16
 C3H4,propyne    3.412-15 2.449-15 9.457-16 5.061-16
 C3H6,propylene  8.508-17 5.967-17 3.183-17 8.247-15
 C3H6O,acetone   4.015-18 2.789-18 1.355-18 1.166-16
 C3H8            9.017-20 6.037-20 3.578-20 3.979-16
 C3O2            1.754-11 1.384-11 4.383-12 1.719-15
 *H              1.8591-3 1.7437-3 7.2932-4 1.6066-8
 HCO             7.347 -6 6.403 -6 2.292 -6 6.638-11
 HCCO            1.373-10 1.065-10 2.192-11 1.684-17
 HO2             4.155 -9 3.339 -9 3.245-10 3.790-22
 *H2             3.6956-1 3.6997-1 3.7404-1 4.4203-1
 HCHO,formaldehy 4.5069-6 4.0251-6 2.3835-6 7.3315-8
 HCOOH           3.2966-6 2.9410-6 1.7279-6 6.3100-8
 H2O             2.9526-1 2.9497-1 2.9193-1 2.2430-1
 H2O2            1.370 -8 1.126 -8 1.779 -9 1.621-18
 (HCOOH)2        1.222-16 8.906-17 2.320-17 2.054-20
 *O              1.059 -6 9.042 -7 1.186 -7 1.494-18
 *OH             3.565 -4 3.237 -4 9.920 -5 4.693-11
 *O2             3.457 -7 2.952 -7 3.870 -8 3.986-19
 O3              8.589-16 5.892-16 9.952-18 0.000  0

  * THERMODYNAMIC PROPERTIES FITTED TO 20000.K

 NOTE. WEIGHT FRACTION OF FUEL IN TOTAL FUELS AND OF OXIDANT IN TOTAL OXIDANTS

              THEORETICAL ROCKET PERFORMANCE ASSUMING EQUILIBRIUM

            COMPOSITION DURING EXPANSION FROM FINITE AREA COMBUSTOR

 Pin =  1469.6 PSIA
 Ac/At =  2.0000      Pinj/Pinf =  1.055252
 CASE = test___________

             REACTANT                    WT FRACTION      ENERGY      TEMP
                                          (SEE NOTE)     KJ/KG-MOL      K  
 FUEL        CH4(L)                       1.0000000    -89233.000    111.643
 OXIDANT     O2(L)                        1.0000000    -12979.000     90.170

 O/F=    1.89965  %FUEL= 34.486929  R,EQ.RATIO= 2.100000  PHI,EQ.RATIO= 2.100000

                 INJECTOR  COMB END  THROAT     EXIT
 Pinj/P            1.0000   1.1203   1.9011   71.188
 P, BAR            101.33   90.447   53.298   1.4233
 T, K             2395.85  2368.17  2134.77  1037.66
 RHO, KG/CU M    7.8828 0 7.1191 0 4.6553 0 2.5753-1
 H, KJ/KG        -2183.99 -2260.39 -2898.66 -5832.75
 U, KJ/KG        -3469.38 -3530.88 -4043.56 -6385.43
 G, KJ/KG        -35114.1 -34878.5 -32302.0 -20124.9
 S, KJ/(KG)(K)    13.7447  13.7735  13.7735  13.7735

 M, (1/n)          15.498   15.498   15.503   15.610
 (dLV/dLP)t      -1.00031 -1.00028 -1.00011 -1.01254
 (dLV/dLT)p        1.0066   1.0062   1.0025   1.1721
 Cp, KJ/(KG)(K)    2.7985   2.7892   2.7068   3.9805
 GAMMAs            1.2406   1.2414   1.2485   1.2067
 SON VEL,M/SEC     1262.8   1255.9   1195.6    816.6
 MACH NUMBER        0.000    0.311    1.000    3.308

 PERFORMANCE PARAMETERS

 Ae/At                      2.0000   1.0000   8.0000
 CSTAR, M/SEC               1725.2   1725.2   1725.2
 CF                         0.2266   0.6930   1.5658
 Ivac, M/SEC                3641.1   2153.2   2906.0
 Isp, M/SEC                  390.9   1195.5   2701.4

 MOLE FRACTIONS

 *C              5.308-13 3.770-13 1.483-14 1.391-29
 *CH             5.281-12 3.813-12 2.305-13 6.136-26
 CH2             8.482-10 6.556-10 9.922-11 1.338-18
 CH3             1.915 -7 1.617 -7 7.416 -8 4.483-10
 CH2OH           2.691 -9 2.155 -9 5.976-10 1.448-14
 CH3O            3.986-10 3.110-10 6.795-11 1.824-16
 CH4             4.2900-6 3.8876-6 4.6265-6 3.3725-3
 CH3OH           1.0107-8 8.5315-9 5.1479-9 1.8078-9
 CH3OOH          9.304-16 6.476-16 6.308-17 7.862-26
 *CO             2.9910-1 2.9875-1 2.9513-1 2.1987-1
 *CO2            3.4037-2 3.4403-2 3.8134-2 1.1234-1
 COOH            5.613 -7 4.830 -7 1.536 -7 1.992-12
 *C2             1.665-16 1.072-16 2.887-18 3.434-34
 C2H             8.043-13 5.706-13 5.063-14 8.158-24
 C2H2,acetylene  5.690 -9 4.657 -9 2.105 -9 3.911-11
 C2H2,vinylidene 3.070-12 2.265-12 3.823-13 1.420-19
 CH2CO,ketene    1.820 -8 1.512 -8 7.831 -9 5.616-10
 O(CH)2O         1.069-11 8.369-12 2.473-12 4.759-16
 HO(CO)2OH       1.062-13 8.304-14 2.448-14 5.163-18
 C2H3,vinyl      4.915-12 3.668-12 9.076-13 6.912-17
 CH3CO,acetyl    3.207-11 2.457-11 7.802-12 1.046-14
 C2H4            2.497-10 2.035-10 1.529-10 6.040 -9
 C2H4O,ethylen-o 7.515-15 5.587-15 1.765-15 7.310-18
 CH3CHO,ethanal  3.072-11 2.448-11 1.482-11 5.681-11
 CH3COOH         3.579-12 2.845-12 1.693-12 7.081-12
 OHCH2COOH       2.530-14 1.873-14 5.699-15 2.056-17
 C2H5            3.664-13 2.718-13 1.105-13 1.780-14
 C2H6            1.295-12 1.023-12 9.895-13 5.877 -9
 C2H5OH          1.654-14 1.225-14 6.487-15 5.842-14
 CH3OCH3         2.071-16 1.491-16 6.010-17 2.912-17
 C2O             4.858-11 3.687-11 4.709-12 1.135-20
 C3H3,2-propynl  2.194-14 1.545-14 3.833-15 3.060-18
 C3H4,allene     5.790-15 4.189-15 1.769-15 1.460-15
 C3H4,propyne    1.329-14 9.657-15 4.247-15 5.259-15
 C3H5,allyl      2.620-16 1.816-16 6.750-17 4.990-17
 C3H6,propylene  5.874-16 4.209-16 2.810-16 3.091-13
 C3H6,cyclo-     3.028-18 2.122-18 1.152-18 1.621-16
 C3H6O,acetone   2.229-17 1.580-17 9.528-18 3.331-15
 C3H6O,propanal  2.154-17 1.493-17 7.274-18 2.818-16
 C3H8            9.694-19 6.675-19 5.314-19 3.976-14
 C3O2            2.050-11 1.615-11 5.106-12 2.044-15
 *H              9.7965-4 9.0744-4 3.3548-4 3.4435-9
 HCO             4.916 -6 4.246 -6 1.394 -6 2.336-11
 HCCO            1.081-10 8.306-11 1.568-11 7.077-18
 HO2             6.647-10 5.189-10 3.788-11 7.393-24
 *H2             3.9848-1 3.9889-1 4.0298-1 4.6976-1
 HCHO,formaldehy 4.9175-6 4.3903-6 2.5998-6 7.9859-8
 HCOOH           3.0396-6 2.7119-6 1.6008-6 6.3379-8
 H2O             2.6726-1 2.6692-1 2.6337-1 1.9465-1
 H2O2            3.539 -9 2.850 -9 3.668-10 9.390-20
 (HCOOH)2        1.198-16 8.757-17 2.386-17 3.165-20
 *O              1.968 -7 1.633 -7 1.618 -8 3.554-20
 *OH             1.329 -4 1.187 -4 3.096 -5 5.303-12
 *O2             5.462 -8 4.533 -8 4.489 -9 8.002-21

  * THERMODYNAMIC PROPERTIES FITTED TO 20000.K

 NOTE. WEIGHT FRACTION OF FUEL IN TOTAL FUELS AND OF OXIDANT IN TOTAL OXIDANTS

              THEORETICAL ROCKET PERFORMANCE ASSUMING EQUILIBRIUM

            COMPOSITION DURING EXPANSION FROM FINITE AREA COMBUSTOR

 Pin =  1469.6 PSIA
 Ac/At =  2.0000      Pinj/Pinf =  1.055531
 CASE = test___________

             REACTANT                    WT FRACTION      ENERGY      TEMP
                                          (SEE NOTE)     KJ/KG-MOL      K  
 FUEL        CH4(L)                       1.0000000    -89233.000    111.643
 OXIDANT     O2(L)                        1.0000000    -12979.000     90.170

 O/F=    1.81330  %FUEL= 35.545425  R,EQ.RATIO= 2.200000  PHI,EQ.RATIO= 2.200000

                 INJECTOR  COMB END  THROAT     EXIT
 Pinj/P            1.0000   1.1209   1.9071   69.680
 P, BAR            101.33   90.396   53.131   1.4542
 T, K             2251.29  2224.35  1997.69  1002.83
 RHO, KG/CU M    8.1417 0 7.3516 0 4.8120 0 2.6781-1
 H, KJ/KG        -2238.58 -2312.91 -2932.54 -5739.32
 U, KJ/KG        -3483.10 -3542.51 -4036.66 -6282.30
 G, KJ/KG        -33382.9 -33151.0 -30628.2 -19642.4
 S, KJ/(KG)(K)    13.8340  13.8639  13.8639  13.8639

 M, (1/n)          15.041   15.041   15.043   15.356
 (dLV/dLP)t      -1.00019 -1.00017 -1.00010 -1.03365
 (dLV/dLT)p        1.0036   1.0033   1.0015   1.4779
 Cp, KJ/(KG)(K)    2.7811   2.7734   2.7092   6.4616
 GAMMAs            1.2500   1.2507   1.2571   1.1756
 SON VEL,M/SEC     1247.3   1240.1   1178.1    799.0
 MACH NUMBER        0.000    0.311    1.000    3.312

 PERFORMANCE PARAMETERS

 Ae/At                      2.0000   1.0000   8.0000
 CSTAR, M/SEC               1693.3   1693.3   1693.3
 CF                         0.2277   0.6957   1.5627
 Ivac, M/SEC                3574.7   2115.3   2851.2
 Isp, M/SEC                  385.6   1178.1   2646.0

 MOLE FRACTIONS

 *C              9.604-14 6.587-14 1.850-15 1.492-30
 *CH             1.472-12 1.034-12 4.795-14 1.107-26
 CH2             4.837-10 3.683-10 4.823-11 5.777-19
 CH3             2.495 -7 2.105 -7 9.650 -8 5.378-10
 CH2OH           2.246 -9 1.787 -9 4.697-10 1.094-14
 CH3O            2.890-10 2.237-10 4.548-11 1.204-16
 CH4             1.1634-5 1.0686-5 1.4565-5 1.0365-2
 CH3OH           1.5877-8 1.3475-8 8.6200-9 3.0164-9
 CH3OOH          4.344-16 2.982-16 2.552-17 3.253-26
 *CO             3.0179-1 3.0140-1 2.9744-1 2.1747-1
 *CO2            3.1446-2 3.1837-2 3.5860-2 1.1241-1
 COOH            3.016 -7 2.571 -7 7.483 -8 9.984-13
 C2H             4.506-13 3.140-13 2.358-14 3.304-24
 C2H2,acetylene  9.842 -9 8.077 -9 3.766 -9 6.405-11
 C2H2,vinylidene 3.002-12 2.196-12 3.431-13 1.110-19
 CH2CO,ketene    2.923 -8 2.438 -8 1.321 -8 9.212-10
 O(CH)2O         1.062-11 8.298-12 2.427-12 4.833-16
 HO(CO)2OH       7.731-14 6.040-14 1.776-14 4.452-18
 C2H3,vinyl      7.198-12 5.363-12 1.317-12 8.957-17
 CH3CO,acetyl    4.649-11 3.567-11 1.161-11 1.521-14
 C2H4            8.357-10 6.903-10 5.960-10 2.206 -8
 C2H4O,ethylen-o 1.302-14 9.726-15 3.239-15 1.325-17
 CH3CHO,ethanal  7.777-11 6.266-11 4.271-11 1.625-10
 CH3COOH         7.679-12 6.175-12 4.153-12 1.895-11
 OHCH2COOH       3.149-14 2.343-14 7.547-15 3.157-17
 C2H5            1.030-12 7.716-13 3.472-13 5.168-14
 C2H6            7.225-12 5.830-12 7.039-12 4.018 -8
 C2H5OH          5.573-14 4.193-14 2.605-14 2.364-13
 CH3OCH3         5.957-16 4.342-16 1.996-16 9.664-17
 C2O             2.402-11 1.794-11 1.962-12 4.373-21
 C3H3,2-propynl  5.174-14 3.659-14 9.554-15 6.781-18
 C3H4,allene     2.230-14 1.634-14 7.916-15 5.986-15
 C3H4,propyne    5.242-14 3.860-14 1.954-14 2.212-14
 C3H4,cyclo-     1.713-16 1.188-16 3.411-17 1.599-19
 C3H5,allyl      1.124-15 7.902-16 3.425-16 2.355-16
 C3H6,propylene  4.249-15 3.116-15 2.648-15 2.744-12
 C3H6,cyclo-     1.941-17 1.389-17 9.425-18 1.259-15
 C3H6O,acetone   1.303-16 9.445-17 7.180-17 2.507-14
 C3H6O,propanal  1.112-16 7.865-17 4.731-17 1.836-15
 C3H8            1.118-17 7.937-18 8.667-18 6.274-13
 C3O2            2.365-11 1.862-11 5.890-12 2.374-15
 *H              4.8520-4 4.4354-4 1.4418-4 1.4120-9
 HCO             3.141 -6 2.687 -6 8.069 -7 1.294-11
 HCCO            8.051-11 6.128-11 1.059-11 4.477-18
 HO2             9.444-11 7.149-11 3.868-12 7.547-25
 *H2             4.2503-1 4.2545-1 4.2967-1 4.8342-1
 HCHO,formaldehy 5.3066-6 4.7369-6 2.8088-6 8.4950-8
 HCOOH           2.8035-6 2.5021-6 1.4875-6 6.3822-8
 H2O             2.4118-1 2.4080-1 2.3686-1 1.7633-1
 H2O2            8.389-10 6.608-10 6.870-11 1.797-20
 (HCOOH)2        1.197-16 8.789-17 2.523-17 4.177-20
 *O              3.243 -8 2.612 -8 1.930 -9 4.080-21
 *OH             4.614 -5 4.051 -5 8.928 -6 1.491-12
 *O2             7.718 -9 6.215 -9 4.585-10 8.244-22

  * THERMODYNAMIC PROPERTIES FITTED TO 20000.K

 NOTE. WEIGHT FRACTION OF FUEL IN TOTAL FUELS AND OF OXIDANT IN TOTAL OXIDANTS

              THEORETICAL ROCKET PERFORMANCE ASSUMING EQUILIBRIUM

            COMPOSITION DURING EXPANSION FROM FINITE AREA COMBUSTOR

 Pin =  1469.6 PSIA
 Ac/At =  2.0000      Pinj/Pinf =  1.055785
 CASE = test___________

             REACTANT                    WT FRACTION      ENERGY      TEMP
                                          (SEE NOTE)     KJ/KG-MOL      K  
 FUEL        CH4(L)                       1.0000000    -89233.000    111.643
 OXIDANT     O2(L)                        1.0000000    -12979.000     90.170

 O/F=    1.73446  %FUEL= 36.570260  R,EQ.RATIO= 2.300000  PHI,EQ.RATIO= 2.300000

                 INJECTOR  COMB END  THROAT     EXIT
 Pinj/P            1.0000   1.1215   1.9125   67.429
 P, BAR            101.33   90.349   52.980   1.5027
 T, K             2113.25  2087.16  1868.34   985.08
 RHO, KG/CU M    8.4320 0 7.6127 0 4.9874 0 2.7886-1
 H, KJ/KG        -2291.42 -2363.51 -2963.25 -5649.00
 U, KJ/KG        -3493.09 -3550.34 -4025.53 -6187.86
 G, KJ/KG        -31681.2 -31454.9 -29004.7 -19379.4
 S, KJ/(KG)(K)    13.9074  13.9383  13.9383  13.9383

 M, (1/n)          14.622   14.622   14.624   15.200
 (dLV/dLP)t      -1.00020 -1.00019 -1.00021 -1.05468
 (dLV/dLT)p        1.0024   1.0022   1.0019   1.7909
 Cp, KJ/(KG)(K)    2.7789   2.7723   2.7223   9.0896
 GAMMAs            1.2585   1.2592   1.2649   1.1606
 SON VEL,M/SEC     1229.8   1222.5   1159.2    790.8
 MACH NUMBER        0.000    0.311    1.000    3.277

 PERFORMANCE PARAMETERS

 Ae/At                      2.0000   1.0000   8.0000
 CSTAR, M/SEC               1660.1   1660.1   1660.1
 CF                         0.2287   0.6983   1.5610
 Ivac, M/SEC                3505.4   2075.6   2799.3
 Isp, M/SEC                  379.7   1159.2   2591.4

 MOLE FRACTIONS

 *C              1.478-14 9.767-15 1.925-16 4.536-31
 *CH             3.593-13 2.451-13 8.599-15 4.490-27
 CH2             2.543-10 1.905-10 2.145-11 3.772-19
 CH3             3.189 -7 2.690 -7 1.234 -7 6.129-10
 CH2OH           1.806 -9 1.428 -9 3.552-10 9.636-15
 CH3O            2.005-10 1.539-10 2.905-11 9.855-17
 CH4             3.2868-5 3.0634-5 4.8256-5 1.9736-2
 CH3OH           2.5228-8 2.1541-8 1.4681-8 4.0963-9
 CH3OOH          1.896-16 1.282-16 9.597-18 2.070-26
 *CO             3.0385-1 3.0344-1 2.9911-1 2.1567-1
 *CO2            2.9426-2 2.9845-2 3.4198-2 1.1108-1
 COOH            1.559 -7 1.316 -7 3.489 -8 6.865-13
 C2H             2.297-13 1.571-13 9.910-15 2.129-24
 C2H2,acetylene  1.690 -8 1.391 -8 6.718 -9 8.808-11
 C2H2,vinylidene 2.771-12 2.010-12 2.899-13 1.026-19
 CH2CO,ketene    4.7208-8 3.9551-8 2.2533-8 1.2554-9
 O(CH)2O         1.042-11 8.125-12 2.357-12 5.042-16
 HO(CO)2OH       5.654-14 4.415-14 1.297-14 4.171-18
 C2H3,vinyl      1.024-11 7.621-12 1.861-12 1.096-16
 CH3CO,acetyl    6.691-11 5.145-11 1.722-11 1.960-14
 C2H4            2.8961-9 2.4279-9 2.4337-9 4.7446-8
 C2H4O,ethylen-o 2.263-14 1.699-14 6.000-15 1.938-17
 CH3CHO,ethanal  2.033-10 1.658-10 1.284-10 3.036-10
 CH3COOH         1.717-11 1.399-11 1.074-11 3.383-11
 OHCH2COOH       3.993-14 2.987-14 1.026-14 4.142-17
 C2H5            2.939-12 2.224-12 1.117-12 9.911-14
 C2H6            4.305-11 3.558-11 5.446-11 1.230 -7
 C2H5OH          1.964-13 1.503-13 1.109-13 5.411-13
 CH3OCH3         1.768-15 1.307-15 6.928-16 1.988-16
 C2O             1.098-11 8.057-12 7.493-13 2.693-21
 C3H3,2-propynl  1.210-13 8.599-14 2.378-14 1.139-17
 C3H4,allene     8.828-14 6.564-14 3.688-14 1.411-14
 C3H4,propyne    2.128-13 1.591-13 9.380-14 5.287-14
 C3H4,cyclo-     5.037-16 3.525-16 1.114-16 3.137-19
 C3H5,allyl      4.974-15 3.556-15 1.820-15 6.040-16
 C3H6,propylene  3.291-14 2.476-14 2.726-14 9.959-12
 C3H6,cyclo-     1.321-16 9.685-17 8.347-17 4.255-15
 C3H6O,acetone   8.174-16 6.073-16 5.922-16 8.240-14
 C3H6O,propanal  6.106-16 4.415-16 3.331-16 5.590-15
 C3H8            1.418-16 1.042-16 1.597-16 3.153-12
 C3O2            2.707-11 2.132-11 6.760-12 2.694-15
 C4H2,butadiyne  2.557-16 1.728-16 3.922-17 5.708-21
 C4H6,butadiene  7.202-18 4.930-18 3.923-18 3.300-16
 C4H8,1-butene   1.001-19 6.697-20 7.403-20 2.406-16
 C4H8,cis2-buten 3.814-20 2.573-20 3.074-20 1.848-16
 C4H8,tr2-butene 4.292-20 2.895-20 3.453-20 2.135-16
 C4H8,isobutene  4.600-20 3.115-20 3.859-20 3.280-16
 *H              2.255 -4 2.033 -4 5.773 -5 8.641-10
 HCO             1.916 -6 1.623 -6 4.437 -7 9.485-12
 HCCO            5.692-11 4.289-11 6.759-12 3.628-18
 HO2             1.180-11 8.645-12 3.408-13 2.145-25
 *H2             4.4949-1 4.4993-1 4.5434-1 4.8875-1
[...]
 C3H6O,propanal  1.024-12 8.268-13 1.002-12 4.535-14
 C3H7,n-propyl   2.012-14 1.499-14 1.105-14 1.863-17
 C3H7,i-propyl   1.926-14 1.452-14 1.181-14 3.256-17
 C3H8            9.394-12 8.119-12 2.479-11 6.371-11
 C3H8O,1propanol 3.919-15 3.051-15 4.106-15 1.680-16
 C3H8O,2propanol 4.310-15 3.398-15 5.070-15 3.746-16
 C3O2            4.444-11 3.516-11 1.117-11 3.422-15
 C4H2,butadiyne  1.447-14 1.016-14 2.434-15 1.827-20
 C4H6,butadiene  1.544-13 1.218-13 1.712-13 5.131-15
 C4H6,1butyne    7.705-15 5.794-15 5.477-15 1.808-17
 C4H6,2butyne    8.222-15 6.333-15 7.274-15 6.634-17
 C4H6,cyclo-     2.093-16 1.590-16 1.636-16 8.926-19
 C4H8,1-butene   1.960-14 1.561-14 3.535-14 6.718-15
 C4H8,cis2-buten 8.999-15 7.246-15 1.795-14 5.355-15
 C4H8,tr2-butene 1.010-14 8.138-15 2.019-14 6.211-15
 C4H8,isobutene  1.186-14 9.606-15 2.492-14 9.745-15
 C4H10,n-butane  8.704-16 7.016-16 2.629-15 4.068-15
 C4H10,isobutane 3.096-16 2.516-16 1.009-15 2.274-15
 C5H6,1,3cyclo-  2.380-16 1.886-16 3.979-16 3.791-17
 C6H6            1.771-16 1.513-16 8.573-16 5.904-15
 *H              6.001 -6 5.088 -6 1.069 -6 3.464-10
 HCO             1.765 -7 1.434 -7 3.169 -8 5.397-12
 HCCO            9.018-12 6.535-12 8.213-13 2.526-18
 HO2             9.088-16 5.760-16 1.194-17 2.300-26
 *H2             5.2552-1 5.2610-1 5.2530-1 4.8166-1
 HCHO,formaldehy 7.0726-6 6.3286-6 3.7766-6 9.7050-8
 HCOOH           1.9820-6 1.7806-6 1.1460-6 6.6262-8
 H2O             1.3906-1 1.3849-1 1.3698-1 1.4288-1
 H2O2            1.736-13 1.205-13 6.442-15 1.450-21
 (HCOOH)2        1.772-16 1.350-16 5.272-17 7.643-20
 *O              6.512-13 4.409-13 1.241-14 1.437-22
 *OH             8.131 -8 6.459 -8 8.205 -9 2.058-13
 *O2             7.815-14 5.284-14 1.521-15 2.431-23
 C(gr)           0.0000 0 0.0000 0 0.0000 0 4.0066-3

  * THERMODYNAMIC PROPERTIES FITTED TO 20000.K

 NOTE. WEIGHT FRACTION OF FUEL IN TOTAL FUELS AND OF OXIDANT IN TOTAL OXIDANTS

              THEORETICAL ROCKET PERFORMANCE ASSUMING EQUILIBRIUM

            COMPOSITION DURING EXPANSION FROM FINITE AREA COMBUSTOR

 Pin =  1469.6 PSIA
 Ac/At =  2.0000      Pinj/Pinf =  1.055232
 CASE = test___________

             REACTANT                    WT FRACTION      ENERGY      TEMP
                                          (SEE NOTE)     KJ/KG-MOL      K  
 FUEL        CH4(L)                       1.0000000    -89233.000    111.643
 OXIDANT     O2(L)                        1.0000000    -12979.000     90.170

 O/F=    1.42474  %FUEL= 41.241587  R,EQ.RATIO= 2.800000  PHI,EQ.RATIO= 2.800000

                 INJECTOR  COMB END  THROAT     EXIT
 Pinj/P            1.0000   1.1202   1.8890   57.499
 P, BAR            101.33   90.456   53.640   1.7622
 T, K             1563.08  1542.75  1408.58   952.89
 RHO, KG/CU M    1.0272 1 9.2919 0 6.1069 0 3.3298-1
 H, KJ/KG        -2532.31 -2590.80 -3073.91 -5378.68
 U, KJ/KG        -3518.72 -3564.29 -3952.26 -5907.90
 G, KJ/KG        -24498.5 -24323.7 -22916.7 -18802.1
 S, KJ/(KG)(K)    14.0531  14.0871  14.0871  14.0871

 M, (1/n)          13.175   13.177   13.334   14.971
 MW, MOL WT        13.175   13.177   13.334   14.694
 (dLV/dLP)t      -1.02740 -1.02754 -1.04329 -1.11150
 (dLV/dLT)p        1.2429   1.2477   1.4301   2.7621
 Cp, KJ/(KG)(K)    4.1974   4.2407   5.4877  19.1274
 GAMMAs            1.2576   1.2564   1.2332   1.1236
 SON VEL,M/SEC     1113.8   1106.0   1040.8    771.1
 MACH NUMBER        0.000    0.309    1.000    3.094

 PERFORMANCE PARAMETERS

 Ae/At                      2.0000   1.0000   8.0000
 CSTAR, M/SEC               1510.8   1510.8   1510.8
 CF                         0.2264   0.6889   1.5793
 Ivac, M/SEC                3188.4   1884.7   2607.8
 Isp, M/SEC                  342.0   1040.8   2385.9

 MOLE FRACTIONS

 CH2             4.241-12 2.956-12 2.614-13 1.537-19
 CH3             8.204 -7 6.948 -7 2.962 -7 7.491-10
 CH2OH           4.103-10 3.169-10 7.321-11 7.540-15
 CH3O            2.061-11 1.532-11 2.689-12 6.717-17
 CH4             8.0529-3 8.1017-3 1.4164-2 6.6607-2
 CH3OH           2.7509-7 2.4356-7 1.7703-7 7.5936-9
 *CO             3.0505-1 3.0444-1 2.9602-1 1.9051-1
 *CO2            2.5586-2 2.6182-2 3.2590-2 1.0211-1
 COOH            4.178 -9 3.374 -9 8.587-10 3.270-13
 C2H             2.784-15 1.756-15 8.180-17 7.851-25
 C2H2,acetylene  2.049 -7 1.726 -7 7.740 -8 1.432-10
 C2H2,vinylidene 9.153-13 6.414-13 7.468-14 7.812-20
 CH2CO,ketene    5.0918-7 4.3961-7 2.5170-7 2.1006-9
 O(CH)2O         8.361-12 6.536-12 1.926-12 5.311-16
 HO(CO)2OH       1.431-14 1.125-14 3.904-15 3.924-18
 C2H3,vinyl      3.873-11 2.893-11 6.226-12 1.474-16
 CH3CO,acetyl    3.588-10 2.818-10 9.349-11 3.052-14
 C2H4            1.7422-6 1.5845-6 1.6743-6 1.9439-7
 C2H4O,ethylen-o 3.409-13 2.657-13 9.661-14 3.982-17
 CH3CHO,ethanal  3.112 -8 2.726 -8 2.322 -8 9.956-10
 CH3COOH         1.434 -9 1.259 -9 1.167 -9 1.066-10
 OHCH2COOH       1.694-13 1.321-13 5.473-14 7.604-17
 C2H5            5.406-10 4.359-10 2.208-10 3.378-13
 C2H6            5.1990-7 4.8810-7 8.7304-7 1.0621-6
 C2H5OH          1.489-10 1.254-10 1.077-10 2.806-12
 CH3OCH3         5.026-13 4.027-13 2.403-13 8.412-16
 C2O             9.629-14 6.543-14 4.841-15 9.219-22
 C3H3,1-propynl  1.897-16 1.252-16 1.382-17 3.314-24
 C3H3,2-propynl  6.354-12 4.690-12 1.177-12 2.704-17
 C3H4,allene     9.136-11 7.388-11 4.194-11 6.622-14
 C3H4,propyne    2.538-10 2.067-10 1.235-10 2.548-13
 C3H4,cyclo-     9.458-14 7.016-14 2.117-14 1.037-18
 C3H5,allyl      9.405-12 7.389-12 3.936-12 3.451-15
 C3H6,propylene  1.430 -9 1.239 -9 1.564 -9 1.144-10
 C3H6,cyclo-     2.810-12 2.350-12 2.294-12 4.264-14
 C3H6O,propylox  2.402-16 1.796-16 8.205-17 2.840-20
 C3H6O,acetone   1.355-11 1.154-11 1.362-11 8.207-13
 C3H6O,propanal  4.756-12 3.899-12 3.494-12 4.808-14
 C3H7,n-propyl   9.353-14 7.070-14 3.801-14 1.936-17
 C3H7,i-propyl   9.362-14 7.165-14 4.209-14 3.396-17
 C3H8            9.424-11 8.316-11 1.608-10 7.237-11
 C3H8O,1propanol 2.462-14 1.952-14 1.839-14 1.887-16
 C3H8O,2propanol 2.836-14 2.278-14 2.361-14 4.229-16
 C3O2            4.762-11 3.778-11 1.174-11 2.986-15
 C4H2,butadiyne  3.012-14 2.129-14 4.258-15 1.543-20
 C4H6,butadiene  1.187-12 9.542-13 8.842-13 5.218-15
 C4H6,1butyne    4.959-14 3.793-14 2.437-14 1.805-17
 C4H6,2butyne    5.781-14 4.531-14 3.478-14 6.678-17
 C4H6,cyclo-     1.399-15 1.081-15 7.523-16 8.950-19
 C4H8,1-butene   2.414-13 1.967-13 2.690-13 7.352-15
 C4H8,cis2-buten 1.155-13 9.513-14 1.411-13 5.881-15
 C4H8,tr2-butene 1.297-13 1.069-13 1.589-13 6.825-15
 C4H8,isobutene  1.554-13 1.288-13 1.994-13 1.073-14
 C4H10,n-butane  1.735-14 1.438-14 2.983-14 4.804-15
 C4H10,isobutane 6.365-15 5.317-15 1.174-14 2.694-15
 C5H6,1,3cyclo-  3.093-15 2.507-15 3.131-15 3.829-17
 C5H8,cyclo-     1.104-16 8.919-17 1.457-16 4.547-18
 C6H6            5.058-15 4.446-15 1.276-14 6.077-15
 *H              2.649 -6 2.232 -6 5.436 -7 3.126-10
 HCO             1.018 -7 8.246 -8 2.009 -8 4.871-12
 HCCO            5.665-12 4.097-12 5.537-13 2.172-18
 HO2             1.159-16 7.255-17 2.247-18 1.967-26
 *H2             5.3366-1 5.3416-1 5.2874-1 4.7736-1
 HCHO,formaldehy 7.2599-6 6.5047-6 3.8505-6 9.3975-8
 HCOOH           1.9053-6 1.7161-6 1.1283-6 6.6100-8
 H2O             1.2763-1 1.2710-1 1.2849-1 1.4490-1
 H2O2            3.860-14 2.657-14 1.916-15 1.327-21
 (HCOOH)2        2.022-16 1.553-16 6.141-17 8.080-20
 *O              9.253-14 6.182-14 2.518-15 1.184-22
 *OH             2.596 -8 2.047 -8 3.233 -9 1.858-13
 *O2             1.018-14 6.793-15 2.911-16 2.053-23
 C(gr)           0.0000 0 0.0000 0 0.0000 0 1.8510-2

  * THERMODYNAMIC PROPERTIES FITTED TO 20000.K

 NOTE. WEIGHT FRACTION OF FUEL IN TOTAL FUELS AND OF OXIDANT IN TOTAL OXIDANTS

              THEORETICAL ROCKET PERFORMANCE ASSUMING EQUILIBRIUM

            COMPOSITION DURING EXPANSION FROM FINITE AREA COMBUSTOR

 Pin =  1469.6 PSIA
 Ac/At =  2.0000      Pinj/Pinf =  1.054724
 CASE = test___________

             REACTANT                    WT FRACTION      ENERGY      TEMP
                                          (SEE NOTE)     KJ/KG-MOL      K  
 FUEL        CH4(L)                       1.0000000    -89233.000    111.643
 OXIDANT     O2(L)                        1.0000000    -12979.000     90.170

 O/F=    1.37561  %FUEL= 42.094485  R,EQ.RATIO= 2.900000  PHI,EQ.RATIO= 2.900000

                 INJECTOR  COMB END  THROAT     EXIT
 Pinj/P            1.0000   1.1190   1.8789   56.476
 P, BAR            101.33   90.549   53.927   1.7941
 T, K             1508.31  1489.39  1373.09   949.40
 RHO, KG/CU M    1.0592 1 9.5884 0 6.2890 0 3.4034-1
 H, KJ/KG        -2576.29 -2632.48 -3098.76 -5363.88
 U, KJ/KG        -3532.87 -3576.85 -3956.24 -5891.04
 G, KJ/KG        -23763.5 -23604.2 -22432.9 -18732.1
 S, KJ/(KG)(K)    14.0470  14.0808  14.0808  14.0808

 M, (1/n)          13.110   13.113   13.314   14.974
 MW, MOL WT        13.110   13.113   13.314   14.488
 (dLV/dLP)t      -1.04721 -1.04747 -1.06277 -1.11145
 (dLV/dLT)p        1.4352   1.4436   1.6410   2.7494
 Cp, KJ/(KG)(K)    5.4106   5.4925   6.9444  18.9461
 GAMMAs            1.2410   1.2393   1.2186   1.1237
 SON VEL,M/SEC     1089.6   1081.8   1022.2    769.7
 MACH NUMBER        0.000    0.310    1.000    3.068

 PERFORMANCE PARAMETERS

 Ae/At                      2.0000   1.0000   8.0000
 CSTAR, M/SEC               1494.3   1494.3   1494.3
 CF                         0.2243   0.6841   1.5801
 Ivac, M/SEC                3152.2   1861.1   2584.4
 Isp, M/SEC                  335.2   1022.2   2361.2

 MOLE FRACTIONS

 CH2             2.237-12 1.560-12 1.552-13 1.272-19
 CH3             8.660 -7 7.338 -7 3.043 -7 7.030-10
 CH2OH           3.210-10 2.483-10 6.002-11 6.995-15
 CH3O            1.452-11 1.082-11 2.034-12 6.136-17
 CH4             1.5989-2 1.6106-2 2.4019-2 7.0231-2
 CH3OH           3.6667-7 3.2520-7 2.2129-7 7.7800-9
 *CO             3.0206-1 3.0140-1 2.9215-1 1.7791-1
 *CO2            2.5930-2 2.6552-2 3.3171-2 9.9560-2
 COOH            2.580 -9 2.086 -9 5.910-10 2.969-13
 C2H             1.359-15 8.571-16 4.529-17 5.911-25
 C2H2,acetylene  2.596 -7 2.187 -7 9.105 -8 1.277-10
 C2H2,vinylidene 6.985-13 4.898-13 5.878-14 6.396-20
 CH2CO,ketene    6.5986-7 5.7049-7 3.0481-7 1.9532-9
 O(CH)2O         7.871-12 6.167-12 1.835-12 4.872-16
 HO(CO)2OH       1.247-14 9.838-15 3.584-15 3.841-18
 C2H3,vinyl      4.122-11 3.082-11 6.378-12 1.290-16
 CH3CO,acetyl    4.190-10 3.297-10 1.044-10 2.822-14
 C2H4            3.7337-6 3.4011-6 2.9849-6 1.9321-7
 C2H4O,ethylen-o 4.560-13 3.564-13 1.202-13 3.807-17
 CH3CHO,ethanal  5.7401-8 5.0384-8 3.7201-8 1.0031-9
 CH3COOH         2.544 -9 2.241 -9 1.839 -9 1.112-10
 OHCH2COOH       2.070-13 1.621-13 6.504-14 7.756-17
 C2H5            9.726-10 7.859-10 3.429-10 3.297-13
 C2H6            1.6642-6 1.5664-6 2.1392-6 1.1533-6
 C2H5OH          3.375-10 2.852-10 2.031-10 2.991-12
 CH3OCH3         9.931-13 7.985-13 4.068-13 8.763-16
 C2O             4.714-14 3.206-14 2.716-15 7.137-22
 C3H3,1-propynl  2.047-16 1.354-16 1.418-17 2.705-24
 C3H3,2-propynl  9.338-12 6.905-12 1.543-12 2.326-17
 C3H4,allene     2.020-10 1.637-10 7.598-11 6.164-14
 C3H4,propyne    5.721-10 4.669-10 2.270-10 2.379-13
 C3H4,cyclo-     1.648-13 1.226-13 3.178-14 9.277-19
 C3H5,allyl      2.247-11 1.770-11 7.589-12 3.292-15
 C3H6,propylene  5.235 -9 4.550 -9 4.221 -9 1.183-10
 C3H6,cyclo-     9.330-12 7.830-12 5.741-12 4.343-14
 C3H6O,propylox  5.593-16 4.199-16 1.569-16 2.834-20
 C3H6O,acetone   4.514-11 3.858-11 3.450-11 8.682-13
 C3H6O,propanal  1.427-11 1.175-11 8.160-12 5.003-14
 C3H7,n-propyl   2.749-13 2.085-13 8.630-14 1.952-17
 C3H7,i-propyl   2.846-13 2.186-13 9.810-14 3.440-17
 C3H8            4.962-10 4.396-10 5.792-10 8.129-11
 C3H8O,1propanol 9.228-14 7.355-14 5.123-14 2.081-16
 C3H8O,2propanol 1.102-13 8.894-14 6.768-14 4.696-16
 C3O2            4.866-11 3.868-11 1.181-11 2.529-15
 C4H2,butadiyne  4.785-14 3.388-14 5.882-15 1.239-20
 C4H6,butadiene  5.037-12 4.065-12 2.663-12 5.160-15
 C4H6,1butyne    1.835-13 1.409-13 6.579-14 1.742-17
 C4H6,2butyne    2.288-13 1.800-13 9.896-14 6.515-17
 C4H6,cyclo-     5.330-15 4.137-15 2.080-15 8.688-19
 C4H8,1-butene   1.455-12 1.191-12 1.068-12 7.865-15
 C4H8,cis2-buten 7.174-13 5.938-13 5.739-13 6.320-15
 C4H8,tr2-butene 8.064-13 6.676-13 6.467-13 7.338-15
 C4H8,isobutene  9.812-13 8.168-13 8.216-13 1.156-14
 C4H8,cyclo-     4.257-16 3.389-16 2.526-16 6.668-19
 C4H9,n-butyl    2.194-16 1.586-16 6.878-17 6.504-21
 C4H9,i-butyl    1.406-16 1.025-16 4.710-17 6.274-21
 C4H9,s-butyl    1.482-16 1.073-16 4.691-17 4.517-21
 C4H10,n-butane  1.498-13 1.248-13 1.576-13 5.580-15
 C4H10,isobutane 5.625-14 4.726-14 6.323-14 3.142-15
 C5H6,1,3cyclo-  1.915-14 1.559-14 1.259-14 3.753-17
 C5H8,cyclo-     9.266-16 7.524-16 7.460-16 4.792-18
 C5H10,1-pentene 3.432-16 2.648-16 2.313-16 4.506-19
 C6H6            5.584-14 4.932-14 8.030-14 6.104-15
 C7H8            1.144-16 9.655-17 1.673-16 5.702-18
 *H              1.415 -6 1.192 -6 3.300 -7 2.761-10
 HCO             6.631 -8 5.372 -8 1.425 -8 4.290-12
 HCCO            3.852-12 2.789-12 4.027-13 1.795-18
 *H2             5.3545-1 5.3585-1 5.2728-1 4.7252-1
 HCHO,formaldehy 7.3081-6 6.5535-6 3.8539-6 8.9945-8
 HCOOH           1.8593-6 1.6780-6 1.1175-6 6.5566-8
 H2O             1.2055-1 1.2008-1 1.2337-1 1.4733-1
 H2O2            1.259-14 8.680-15 8.040-16 1.176-21
 (HCOOH)2        2.265-16 1.748-16 6.896-17 8.444-20
 *O              2.127-14 1.421-14 7.934-16 9.341-23
 *OH             1.101 -8 8.682 -9 1.651 -9 1.638-13
 *O2             2.227-15 1.487-15 8.909-17 1.667-23
 C(gr)           0.0000 0 0.0000 0 0.0000 0 3.2456-2

  * THERMODYNAMIC PROPERTIES FITTED TO 20000.K

 NOTE. WEIGHT FRACTION OF FUEL IN TOTAL FUELS AND OF OXIDANT IN TOTAL OXIDANTS

              THEORETICAL ROCKET PERFORMANCE ASSUMING EQUILIBRIUM

            COMPOSITION DURING EXPANSION FROM FINITE AREA COMBUSTOR

 Pin =  1469.6 PSIA
 Ac/At =  2.0000      Pinj/Pinf =  1.054361
 CASE = test___________

             REACTANT                    WT FRACTION      ENERGY      TEMP
                                          (SEE NOTE)     KJ/KG-MOL      K  
 FUEL        CH4(L)                       1.0000000    -89233.000    111.643
 OXIDANT     O2(L)                        1.0000000    -12979.000     90.170

 O/F=    1.32975  %FUEL= 42.922978  R,EQ.RATIO= 3.000000  PHI,EQ.RATIO= 3.000000

                 INJECTOR  COMB END  THROAT     EXIT
 Pinj/P            1.0000   1.1182   1.8721   55.700
 P, BAR            101.33   90.616   54.125   1.8191
 T, K             1469.60  1451.78  1346.88   945.42
 RHO, KG/CU M    1.0867 1 9.8405 0 6.4442 0 3.4684-1
 H, KJ/KG        -2619.01 -2673.43 -3126.57 -5356.59
 U, KJ/KG        -3551.46 -3594.28 -3966.47 -5881.07
 G, KJ/KG        -23244.9 -23097.9 -22075.3 -18657.3
 S, KJ/(KG)(K)    14.0350  14.0686  14.0686  14.0686

 M, (1/n)          13.104   13.108   13.333   14.987
 MW, MOL WT        13.104   13.108   13.333   14.303
 (dLV/dLP)t      -1.06547 -1.06575 -1.07862 -1.11130
 (dLV/dLT)p        1.6207   1.6317   1.8197   2.7356
 Cp, KJ/(KG)(K)    6.6324   6.7453   8.2198  18.7475
 GAMMAs            1.2282   1.2264   1.2086   1.1238
 SON VEL,M/SEC     1070.2   1062.7   1007.5    767.7
 MACH NUMBER        0.000    0.310    1.000    3.048

 PERFORMANCE PARAMETERS

 Ae/At                      2.0000   1.0000   8.0000
 CSTAR, M/SEC               1480.2   1480.2   1480.2
 CF                         0.2229   0.6807   1.5809
 Ivac, M/SEC                3121.2   1841.2   2564.0
 Isp, M/SEC                  329.9   1007.5   2339.9

 MOLE FRACTIONS

 CH2             1.347-12 9.409-13 1.015-13 1.023-19
 CH3             8.750 -7 7.418 -7 3.029 -7 6.510-10
 CH2OH           2.628-10 2.036-10 5.076-11 6.381-15
 CH3O            1.100-11 8.208-12 1.618-12 5.499-17
 CH4             2.5901-2 2.6068-2 3.5098-2 7.4031-2
 CH3OH           4.4659-7 3.9624-7 2.5837-7 7.9202-9
 *CO             2.9823-1 2.9754-1 2.8777-1 1.6571-1
 *CO2            2.6449-2 2.7090-2 3.3848-2 9.7275-2
 COOH            1.807 -9 1.464 -9 4.444-10 2.660-13
 C2H             7.591-16 4.802-16 2.769-17 4.288-25
 C2H2,acetylene  2.960 -7 2.495 -7 9.930 -8 1.120-10
 C2H2,vinylidene 5.441-13 3.821-13 4.700-14 5.085-20
 CH2CO,ketene    7.7703-7 6.7203-7 3.4382-7 1.7943-9
 O(CH)2O         7.400-12 5.809-12 1.740-12 4.400-16
 HO(CO)2OH       1.140-14 9.018-15 3.377-15 3.723-18
 C2H3,vinyl      4.110-11 3.076-11 6.232-12 1.102-16
 CH3CO,acetyl    4.549-10 3.584-10 1.103-10 2.564-14
 C2H4            6.2802-6 5.7167-6 4.4598-6 1.9029-7
 C2H4O,ethylen-o 5.465-13 4.276-13 1.376-13 3.579-17
 CH3CHO,ethanal  8.7535-8 7.6839-8 5.1754-8 1.0018-9
 CH3COOH         3.828 -9 3.374 -9 2.555 -9 1.153-10
 OHCH2COOH       2.389-13 1.876-13 7.355-14 7.827-17
 C2H5            1.430 -9 1.155 -9 4.590-10 3.165-13
 C2H6            3.7596-6 3.5346-6 4.0603-6 1.2464-6
 C2H5OH          5.969-10 5.044-10 3.187-10 3.158-12
 CH3OCH3         1.585-12 1.275-12 5.871-13 9.013-16
 C2O             2.689-14 1.833-14 1.702-15 5.359-22
 C3H3,1-propynl  2.023-16 1.340-16 1.365-17 2.134-24
 C3H3,2-propynl  1.164-11 8.611-12 1.794-12 1.949-17
 C3H4,allene     3.412-10 2.765-10 1.131-10 5.631-14
 C3H4,propyne    9.803-10 7.998-10 3.418-10 2.180-13
 C3H4,cyclo-     2.329-13 1.732-13 4.091-14 8.099-19
 C3H5,allyl      4.009-11 3.159-11 1.182-11 3.079-15
 C3H6,propylene  1.283 -8 1.114 -8 8.493 -9 1.209-10
 C3H6,cyclo-     2.126-11 1.783-11 1.090-11 4.360-14
 C3H6O,propylox  9.905-16 7.443-16 2.449-16 2.775-20
 C3H6O,acetone   1.046-10 8.933-11 6.687-11 9.089-13
 C3H6O,propanal  3.059-11 2.517-11 1.485-11 5.139-14
 C3H7,n-propyl   5.692-13 4.319-13 1.515-13 1.928-17
 C3H7,i-propyl   6.043-13 4.640-13 1.757-13 3.418-17
 C3H8            1.587 -9 1.405 -9 1.448 -9 9.052-11
 C3H8O,1propanol 2.321-13 1.850-13 1.062-13 2.266-16
 C3H8O,2propanol 2.846-13 2.298-13 1.434-13 5.152-16
 C3O2            4.804-11 3.823-11 1.157-11 2.102-15
 C4H2,butadiyne  6.225-14 4.409-14 7.029-15 9.640-21
 C4H6,butadiene  1.354-11 1.092-11 5.740-12 5.008-15
 C4H6,1butyne    4.447-13 3.413-13 1.302-13 1.645-17
 C4H6,2butyne    5.831-13 4.583-13 2.040-13 6.225-17
 C4H6,cyclo-     1.321-14 1.025-14 4.197-15 8.254-19
 C4H8,1-butene   5.051-12 4.130-12 2.832-12 8.282-15
 C4H8,cis2-buten 2.549-12 2.107-12 1.550-12 6.691-15
 C4H8,tr2-butene 2.867-12 2.371-12 1.747-12 7.772-15
 C4H8,isobutene  3.529-12 2.934-12 2.241-12 1.229-14
 C4H8,cyclo-     1.396-15 1.110-15 6.397-16 6.926-19
 C4H9,n-butyl    6.600-16 4.770-16 1.623-16 6.664-21
 C4H9,i-butyl    4.304-16 3.137-16 1.128-16 6.460-21
 C4H9,s-butyl    4.471-16 3.236-16 1.109-16 4.628-21
 C4H9,t-butyl    1.687-16 1.254-16 5.077-17 5.520-21
 C4H10,n-butane  6.774-13 5.636-13 5.178-13 6.401-15
 C4H10,isobutane 2.588-13 2.172-13 2.107-13 3.621-15
 C5H6,1,3cyclo-  6.703-14 5.450-14 3.337-14 3.605-17
 C5H8,cyclo-     4.050-15 3.284-15 2.368-15 4.959-18
 C5H10,1-pentene 1.693-15 1.305-15 8.088-16 4.890-19
 C5H12,n-pentane 2.463-16 1.926-16 1.577-16 3.913-19
 C5H12,i-pentane 2.445-16 1.917-16 1.602-16 4.817-19
 C6H6            2.961-13 2.609-13 2.958-13 6.032-15
 C6H5OH,phenol   4.060-16 3.297-16 2.416-16 4.130-19
 C7H8            8.858-16 7.453-16 8.316-16 5.848-18
 *H              8.805 -7 7.431 -7 2.239 -7 2.406-10
 HCO             4.762 -8 3.864 -8 1.084 -8 3.719-12
 HCCO            2.803-12 2.033-12 3.074-13 1.446-18
 *H2             5.3305-1 5.3338-1 5.2308-1 4.6732-1
 HCHO,formaldehy 7.2570-6 6.5113-6 3.8140-6 8.5426-8
 HCOOH           1.8320-6 1.6555-6 1.1100-6 6.4764-8
 H2O             1.1635-1 1.1591-1 1.2018-1 1.4999-1
 H2O2            5.548-15 3.839-15 4.182-16 1.021-21
 (HCOOH)2        2.485-16 1.924-16 7.550-17 8.746-20
 *O              7.149-15 4.796-15 3.291-16 7.165-23
 *OH             5.844 -9 4.618 -9 9.905-10 1.421-13
 *O2             7.318-16 4.907-16 3.655-17 1.320-23
 C(gr)           0.0000 0 0.0000 0 0.0000 0 4.5670-2

  * THERMODYNAMIC PROPERTIES FITTED TO 20000.K

 NOTE. WEIGHT FRACTION OF FUEL IN TOTAL FUELS AND OF OXIDANT IN TOTAL OXIDANTS