

         NASA-GLENN CHEMICAL EQUILIBRIUM PROGRAM CEA2, FEBRUARY 5, 2004
                   BY  BONNIE MCBRIDE AND SANFORD GORDON
      REFS: NASA RP-1311, PART I, 1994 AND NASA RP-1311, PART II, 1996

 *******************************************************************************

  
 ### CEA analysis performed on Mon 29-Aug-2022 03:09:49
  
 # Problem Type: "Rocket" (Finite Area Combustor)
  
 prob case=test___________9755 ro equilibrium    fac
  
 !Contraction Ratio:
 ac/at=2
  
 # Pressure (1 value):
 p,atm= 100
 # Supersonic Area Ratio (1 value):
 supar= 8
  
 # Equivalence based on Fuel/Oxid. wt ratio (Eq 9.19*) (10 values):
 phi= 3.1, 3.2, 3.3, 3.4, 3.5, 3.6, 3.7, 3.8, 3.9, 4
  
 # You selected the following fuels and oxidizers:
 reac
 fuel CH4(L)            wt%=100.0000
 oxid O2(L)             wt%=100.0000
  
 # You selected these options for output:
 # short version of output
 output short
 # Proportions of any products will be expressed as Mole Fractions.
 # Heat will be expressed as siunits
 output siunits
 # Trace variable:
 output trace=1e-16
  
 # Input prepared by this script:/var/www/sites/cearun.grc.nasa.gov/cgi-bin/CEARU
 N/prepareInputFile.cgi
  
 ### IMPORTANT:  The following line is the end of your CEA input file!
 end

              THEORETICAL ROCKET PERFORMANCE ASSUMING EQUILIBRIUM

            COMPOSITION DURING EXPANSION FROM FINITE AREA COMBUSTOR

 Pin =  1469.6 PSIA
 Ac/At =  2.0000      Pinj/Pinf =  1.054098
 CASE = test___________

             REACTANT                    WT FRACTION      ENERGY      TEMP
                                          (SEE NOTE)     KJ/KG-MOL      K  
 FUEL        CH4(L)                       1.0000000    -89233.000    111.643
 OXIDANT     O2(L)                        1.0000000    -12979.000     90.170

 O/F=    1.28686  %FUEL= 43.728097  R,EQ.RATIO= 3.100000  PHI,EQ.RATIO= 3.100000

                 INJECTOR  COMB END  THROAT     EXIT
 Pinj/P            1.0000   1.1176   1.8671   55.086
 P, BAR            101.33   90.664   54.270   1.8394
 T, K             1440.53  1423.54  1326.24   941.14
 RHO, KG/CU M    1.1109 1 1.0063 1 6.5821 0 3.5279-1
 H, KJ/KG        -2660.53 -2713.51 -3155.77 -5354.21
 U, KJ/KG        -3572.61 -3614.50 -3980.27 -5875.60
 G, KJ/KG        -22855.3 -22717.7 -21792.6 -18579.5
 S, KJ/(KG)(K)    14.0191  14.0524  14.0524  14.0524

 M, (1/n)          13.132   13.137   13.374   15.008
 MW, MOL WT        13.132   13.137   13.374   14.136
 (dLV/dLP)t      -1.08016 -1.08042 -1.09080 -1.11105
 (dLV/dLT)p        1.7767   1.7893   1.9626   2.7208
 Cp, KJ/(KG)(K)    7.6959   7.8313   9.2681  18.5337
 GAMMAs            1.2188   1.2170   1.2013   1.1239
 SON VEL,M/SEC     1054.4   1047.2    995.2    765.5
 MACH NUMBER        0.000    0.311    1.000    3.032

 PERFORMANCE PARAMETERS

 Ae/At                      2.0000   1.0000   8.0000
 CSTAR, M/SEC               1467.4   1467.4   1467.4
 CF                         0.2218   0.6782   1.5818
 Ivac, M/SEC                3093.6   1823.7   2545.7
 Isp, M/SEC                  325.5    995.2   2321.1

 MOLE FRACTIONS

 CH2             8.846-13 6.195-13 7.057-14 8.089-20
 CH3             8.616 -7 7.307 -7 2.960 -7 5.975-10
 CH2OH           2.218-10 1.720-10 4.379-11 5.754-15
 CH3O            8.731-12 6.530-12 1.327-12 4.864-17
 CH4             3.6883-2 3.7080-2 4.6800-2 7.7985-2
 CH3OH           5.1378-7 4.5589-7 2.8928-7 8.0232-9
 *CO             2.9396-1 2.9324-1 2.8315-1 1.5410-1
 *CO2            2.7057-2 2.7712-2 3.4571-2 9.5154-2
 COOH            1.372 -9 1.113 -9 3.530-10 2.362-13
 C2H             4.645-16 2.946-16 1.804-17 3.035-25
 C2H2,acetylene  3.166 -7 2.669 -7 1.035 -7 9.716-11
 C2H2,vinylidene 4.311-13 3.032-13 3.802-14 3.966-20
 CH2CO,ketene    8.6187-7 7.4553-7 3.7142-7 1.6348-9
 O(CH)2O         6.956-12 5.467-12 1.646-12 3.930-16
 HO(CO)2OH       1.072-14 8.498-15 3.233-15 3.581-18
 C2H3,vinyl      3.943-11 2.954-11 5.923-12 9.266-17
 CH3CO,acetyl    4.721-10 3.722-10 1.127-10 2.302-14
 C2H4            9.0694-6 8.2482-6 5.9800-6 1.8621-7
 C2H4O,ethylen-o 6.116-13 4.788-13 1.498-13 3.326-17
 CH3CHO,ethanal  1.184 -7 1.039 -7 6.603 -8 9.938-10
 CH3COOH         5.181 -9 4.568 -9 3.285 -9 1.190-10
 OHCH2COOH       2.656-13 2.088-13 8.063-14 7.833-17
 C2H5            1.852 -9 1.496 -9 5.615-10 3.005-13
 C2H6            6.8114-6 6.3937-6 6.5871-6 1.3417-6
 C2H5OH          9.021-10 7.621-10 4.464-10 3.311-12
 CH3OCH3         2.209-12 1.777-12 7.682-13 9.182-16
 C2O             1.695-14 1.159-14 1.144-15 3.945-22
 C3H3,1-propynl  1.899-16 1.259-16 1.266-17 1.646-24
 C3H3,2-propynl  1.311-11 9.705-12 1.941-12 1.605-17
 C3H4,allene     4.868-10 3.943-10 1.493-10 5.077-14
 C3H4,propyne    1.415 -9 1.154 -9 4.554-10 1.973-13
 C3H4,cyclo-     2.887-13 2.148-13 4.798-14 6.952-19
 C3H5,allyl      5.959-11 4.693-11 1.615-11 2.841-15
 C3H6,propylene  2.439 -8 2.115 -8 1.427 -8 1.224-10
 C3H6,cyclo-     3.819-11 3.200-11 1.747-11 4.333-14
 C3H6O,propylox  1.476-15 1.109-15 3.372-16 2.680-20
 C3H6O,acetone   1.924-10 1.642-10 1.099-10 9.439-13
 C3H6O,propanal  5.295-11 4.355-11 2.320-11 5.229-14
 C3H7,n-propyl   9.458-13 7.173-13 2.272-13 1.878-17
 C3H7,i-propyl   1.024-12 7.859-13 2.678-13 3.350-17
 C3H8            3.705 -9 3.272 -9 2.889 -9 1.001-10
 C3H8O,1propanol 4.534-13 3.611-13 1.834-13 2.442-16
 C3H8O,2propanol 5.680-13 4.582-13 2.524-13 5.598-16
 C3O2            4.645-11 3.701-11 1.114-11 1.725-15
 C4H2,butadiyne  7.160-14 5.075-14 7.699-15 7.341-21
 C4H6,butadiene  2.728-11 2.197-11 1.008-11 4.797-15
 C4H6,1butyne    8.258-13 6.331-13 2.133-13 1.529-17
 C4H6,2butyne    1.126-12 8.844-13 3.454-13 5.863-17
 C4H6,cyclo-     2.497-14 1.935-14 6.982-15 7.726-19
 C4H8,1-butene   1.238-11 1.010-11 5.858-12 8.620-15
 C4H8,cis2-buten 6.363-12 5.249-12 3.253-12 7.003-15
 C4H8,tr2-butene 7.160-12 5.908-12 3.671-12 8.141-15
 C4H8,isobutene  8.893-12 7.379-12 4.744-12 1.291-14
 C4H8,cyclo-     3.272-15 2.599-15 1.275-15 7.101-19
 C4H9,n-butyl    1.441-15 1.041-15 3.044-16 6.715-21
 C4H9,i-butyl    9.531-16 6.940-16 2.141-16 6.543-21
 C4H9,s-butyl    9.784-16 7.073-16 2.083-16 4.664-21
 C4H9,t-butyl    3.855-16 2.860-16 9.889-17 5.642-21
 C4H10,n-butane  2.033-12 1.688-12 1.270-12 7.271-15
 C4H10,isobutane 7.878-13 6.594-13 5.230-13 4.135-15
 C5H6,1,3cyclo-  1.637-13 1.329-13 6.850-14 3.416-17
 C5H8,cyclo-     1.172-14 9.483-15 5.604-15 5.066-18
 C5H10,1-pentene 5.359-15 4.120-15 2.061-15 5.229-19
 C5H10,cyclo-    2.693-16 2.196-16 1.593-16 3.950-19
 C5H12,n-pentane 9.504-16 7.413-16 4.753-16 4.567-19
 C5H12,i-pentane 9.477-16 7.413-16 4.852-16 5.642-19
 C6H6            9.874-13 8.673-13 7.843-13 5.893-15
 C6H5OH,phenol   1.177-15 9.538-16 5.725-16 3.987-19
 C7H8            3.897-15 3.267-15 2.767-15 5.916-18
 *H              6.048 -7 5.114 -7 1.629 -7 2.078-10
 HCO             3.644 -8 2.961 -8 8.616 -9 3.190-12
 HCCO            2.135-12 1.551-12 2.420-13 1.146-18
 *H2             5.2829-1 5.2859-1 5.1737-1 4.6189-1
 HCHO,formaldehy 7.1479-6 6.4160-6 3.7494-6 8.0697-8
 HCOOH           1.8148-6 1.6412-6 1.1040-6 6.3759-8
 H2O             1.1378-1 1.1335-1 1.1809-1 1.5278-1
 H2O2            2.962-15 2.057-15 2.484-16 8.733-22
 (HCOOH)2        2.686-16 2.084-16 8.130-17 8.993-20
 *O              3.068-15 2.066-15 1.620-16 5.397-23
 *OH             3.580 -9 2.836 -9 6.572-10 1.221-13
 *O2             3.119-16 2.100-16 1.797-17 1.028-23
 C(gr)           0.0000 0 0.0000 0 0.0000 0 5.8081-2

  * THERMODYNAMIC PROPERTIES FITTED TO 20000.K

 NOTE. WEIGHT FRACTION OF FUEL IN TOTAL FUELS AND OF OXIDANT IN TOTAL OXIDANTS

              THEORETICAL ROCKET PERFORMANCE ASSUMING EQUILIBRIUM

            COMPOSITION DURING EXPANSION FROM FINITE AREA COMBUSTOR

 Pin =  1469.6 PSIA
 Ac/At =  2.0000      Pinj/Pinf =  1.053895
 CASE = test___________

             REACTANT                    WT FRACTION      ENERGY      TEMP
                                          (SEE NOTE)     KJ/KG-MOL      K  
 FUEL        CH4(L)                       1.0000000    -89233.000    111.643
 OXIDANT     O2(L)                        1.0000000    -12979.000     90.170

 O/F=    1.24664  %FUEL= 44.510818  R,EQ.RATIO= 3.200000  PHI,EQ.RATIO= 3.200000

                 INJECTOR  COMB END  THROAT     EXIT
 Pinj/P            1.0000   1.1171   1.8632   54.587
 P, BAR            101.33   90.701   54.383   1.8562
 T, K             1417.35  1401.02  1309.15   936.67
 RHO, KG/CU M    1.1331 1 1.0265 1 6.7088 0 3.5832-1
 H, KJ/KG        -2700.90 -2752.64 -3185.51 -5355.20
 U, KJ/KG        -3595.13 -3636.24 -3996.13 -5873.23
 G, KJ/KG        -22544.3 -22413.9 -21557.5 -18499.9
 S, KJ/(KG)(K)    14.0004  14.0335  14.0335  14.0335

 M, (1/n)          13.178   13.183   13.428   15.034
 MW, MOL WT        13.178   13.183   13.428   13.986
 (dLV/dLP)t      -1.09147 -1.09169 -1.10002 -1.11072
 (dLV/dLT)p        1.9020   1.9156   2.0752   2.7050
 Cp, KJ/(KG)(K)    8.5758   8.7275  10.1143  18.3069
 GAMMAs            1.2116   1.2099   1.1956   1.1240
 SON VEL,M/SEC     1040.9   1034.0    984.5    763.1
 MACH NUMBER        0.000    0.311    1.000    3.019

 PERFORMANCE PARAMETERS

 Ae/At                      2.0000   1.0000   8.0000
 CSTAR, M/SEC               1455.7   1455.7   1455.7
 CF                         0.2210   0.6763   1.5828
 Ivac, M/SEC                3068.3   1807.9   2528.9
 Isp, M/SEC                  321.7    984.5   2304.0

 MOLE FRACTIONS

 CH2             6.151-13 4.317-13 5.111-14 6.313-20
 CH3             8.353 -7 7.088 -7 2.859 -7 5.448-10
 CH2OH           1.909-10 1.483-10 3.829-11 5.145-15
 CH3O            7.148-12 5.355-12 1.112-12 4.261-17
 CH4             4.8418-2 4.8632-2 5.8810-2 8.2079-2
 CH3OH           5.7017-7 5.0593-7 3.1524-7 8.0943-9
 *CO             2.8946-1 2.8872-1 2.7840-1 1.4316-1
 *CO2            2.7711-2 2.8377-2 3.5317-2 9.3137-2
 COOH            1.096 -9 8.905-10 2.906-10 2.083-13
 C2H             3.016-16 1.919-16 1.227-17 2.113-25
 C2H2,acetylene  3.256 -7 2.746 -7 1.048 -7 8.366-11
 C2H2,vinylidene 3.458-13 2.436-13 3.102-14 3.052-20
 CH2CO,ketene    9.2100-7 7.9681-7 3.9028-7 1.4806-9
 O(CH)2O         6.540-12 5.145-12 1.554-12 3.481-16
 HO(CO)2OH       1.026-14 8.141-15 3.124-15 3.423-18
 C2H3,vinyl      3.699-11 2.773-11 5.535-12 7.705-17
 CH3CO,acetyl    4.766-10 3.761-10 1.128-10 2.049-14
 C2H4            1.1903-5 1.0818-5 7.4782-6 1.8134-7
 C2H4O,ethylen-o 6.557-13 5.136-13 1.579-13 3.063-17
 CH3CHO,ethanal  1.484 -7 1.302 -7 7.965 -8 9.808-10
 CH3COOH         6.559 -9 5.782 -9 4.016 -9 1.223-10
 OHCH2COOH       2.882-13 2.268-13 8.660-14 7.786-17
 C2H5            2.217 -9 1.791 -9 6.481-10 2.828-13
 C2H6            1.0738-5 1.0067-5 9.6537-6 1.4391-6
 C2H5OH          1.235 -9 1.043 -9 5.811-10 3.449-12
 CH3OCH3         2.828-12 2.275-12 9.435-13 9.283-16
 C2O             1.141-14 7.815-15 8.051-16 2.864-22
 C3H3,1-propynl  1.728-16 1.147-16 1.147-17 1.250-24
 C3H3,2-propynl  1.388-11 1.028-11 2.006-12 1.305-17
 C3H4,allene     6.253-10 5.063-10 1.825-10 4.536-14
 C3H4,propyne    1.834 -9 1.495 -9 5.611-10 1.770-13
 C3H4,cyclo-     3.301-13 2.457-13 5.303-14 5.897-19
 C3H5,allyl      7.900-11 6.222-11 2.029-11 2.596-15
 C3H6,propylene  3.956 -8 3.426 -8 2.135 -8 1.231-10
 C3H6,cyclo-     5.910-11 4.948-11 2.510-11 4.273-14
 C3H6O,propylox  1.975-15 1.484-15 4.286-16 2.561-20
 C3H6O,acetone   3.064-10 2.612-10 1.624-10 9.738-13
 C3H6O,propanal  8.015-11 6.588-11 3.282-11 5.279-14
 C3H7,n-propyl   1.369-12 1.038-12 3.079-13 1.809-17
 C3H7,i-propyl   1.507-12 1.156-12 3.679-13 3.248-17
 C3H8            7.088 -9 6.249 -9 4.986 -9 1.101-10
 C3H8O,1propanol 7.552-13 6.009-13 2.818-13 2.610-16
 C3H8O,2propanol 9.629-13 7.760-13 3.938-13 6.036-16
 C3O2            4.436-11 3.537-11 1.062-11 1.403-15
 C4H2,butadiyne  7.636-14 5.417-14 7.981-15 5.509-21
 C4H6,butadiene  4.587-11 3.691-11 1.550-11 4.550-15
 C4H6,1butyne    1.298-12 9.945-13 3.093-13 1.405-17
 C4H6,2butyne    1.829-12 1.435-12 5.149-13 5.462-17
 C4H6,cyclo-     3.983-14 3.085-14 1.026-14 7.151-19
 C4H8,1-butene   2.438-11 1.987-11 1.032-11 8.890-15
 C4H8,cis2-buten 1.272-11 1.047-11 5.806-12 7.266-15
 C4H8,tr2-butene 1.432-11 1.180-11 6.554-12 8.452-15
 C4H8,isobutene  1.792-11 1.484-11 8.525-12 1.345-14
 C4H8,cyclo-     6.209-15 4.925-15 2.176-15 7.209-19
 C4H9,n-butyl    2.574-15 1.857-15 4.928-16 6.680-21
 C4H9,i-butyl    1.722-15 1.253-15 3.502-16 6.545-21
 C4H9,s-butyl    1.750-15 1.264-15 3.376-16 4.639-21
 C4H9,t-butyl    7.145-16 5.295-16 1.652-16 5.697-21
 C4H10,n-butane  4.714-12 3.905-12 2.578-12 8.191-15
 C4H10,isobutane 1.848-12 1.544-12 1.073-12 4.683-15
 C5H6,1,3cyclo-  3.191-13 2.586-13 1.192-13 3.202-17
 C5H8,cyclo-     2.616-14 2.113-14 1.097-14 5.122-18
 C5H10,1-pentene 1.283-14 9.844-15 4.282-15 5.528-19
 C5H10,cyclo-    6.992-16 5.690-16 3.553-16 4.337-19
 C5H12,n-pentane 2.670-15 2.078-15 1.135-15 5.274-19
 C5H12,i-pentane 2.673-15 2.086-15 1.164-15 6.540-19
 CH3C(CH3)2CH3   1.584-16 1.241-16 7.105-17 5.394-20
 C6H6            2.460-12 2.155-12 1.681-12 5.706-15
 C6H5OH,phenol   2.634-15 2.130-15 1.123-15 3.809-19
 C7H8            1.201-14 1.004-14 7.104-15 5.920-18
 *H              4.426 -7 3.748 -7 1.240 -7 1.785-10
 HCO             2.905 -8 2.364 -8 7.052 -9 2.717-12
 HCCO            1.675-12 1.219-12 1.946-13 8.977-19
 *H2             5.2222-1 5.2250-1 5.1079-1 4.5631-1
 HCHO,formaldehy 7.0058-6 6.2905-6 3.6705-6 7.5922-8
 HCOOH           1.8029-6 1.6313-6 1.0989-6 6.2590-8
 H2O             1.1216-1 1.1174-1 1.1667-1 1.5564-1
 H2O2            1.786-15 1.244-15 1.609-16 7.393-22
 (HCOOH)2        2.871-16 2.230-16 8.656-17 9.187-20
 *O              1.538-15 1.039-15 8.916-17 4.015-23
 *OH             2.403 -9 1.907 -9 4.655-10 1.041-13
 *O2             1.567-16 1.059-16 9.947-18 7.908-24
 C(gr)           0.0000 0 0.0000 0 0.0000 0 6.9679-2

  * THERMODYNAMIC PROPERTIES FITTED TO 20000.K

 NOTE. WEIGHT FRACTION OF FUEL IN TOTAL FUELS AND OF OXIDANT IN TOTAL OXIDANTS

              THEORETICAL ROCKET PERFORMANCE ASSUMING EQUILIBRIUM

            COMPOSITION DURING EXPANSION FROM FINITE AREA COMBUSTOR

 Pin =  1469.6 PSIA
 Ac/At =  2.0000      Pinj/Pinf =  1.053732
 CASE = test___________

             REACTANT                    WT FRACTION      ENERGY      TEMP
                                          (SEE NOTE)     KJ/KG-MOL      K  
 FUEL        CH4(L)                       1.0000000    -89233.000    111.643
 OXIDANT     O2(L)                        1.0000000    -12979.000     90.170

 O/F=    1.20887  %FUEL= 45.272064  R,EQ.RATIO= 3.300000  PHI,EQ.RATIO= 3.300000

                 INJECTOR  COMB END  THROAT     EXIT
 Pinj/P            1.0000   1.1168   1.8600   54.173
 P, BAR            101.33   90.731   54.476   1.8704
 T, K             1398.02  1382.24  1294.49   932.07
 RHO, KG/CU M    1.1538 1 1.0454 1 6.8274 0 3.6355-1
 H, KJ/KG        -2740.15 -2790.82 -3215.32 -5358.56
 U, KJ/KG        -3618.34 -3658.77 -4013.22 -5873.04
 G, KJ/KG        -22284.1 -22159.6 -21354.4 -18419.3
 S, KJ/(KG)(K)    13.9797  14.0126  14.0126  14.0126

 M, (1/n)          13.236   13.241   13.489   15.063
 MW, MOL WT        13.236   13.241   13.489   13.851
 (dLV/dLP)t      -1.10008 -1.10027 -1.10698 -1.11030
 (dLV/dLT)p        2.0017   2.0160   2.1641   2.6882
 Cp, KJ/(KG)(K)    9.2944   9.4579  10.7965  18.0692
 GAMMAs            1.2059   1.2042   1.1910   1.1242
 SON VEL,M/SEC     1029.1   1022.3    974.8    760.5
 MACH NUMBER        0.000    0.311    1.000    3.009

 PERFORMANCE PARAMETERS

 Ae/At                      2.0000   1.0000   8.0000
 CSTAR, M/SEC               1444.8   1444.8   1444.8
 CF                         0.2203   0.6747   1.5839
 Ivac, M/SEC                3044.8   1793.3   2513.2
 Isp, M/SEC                  318.3    974.9   2288.4

 MOLE FRACTIONS

 CH2             4.446-13 3.126-13 3.809-14 4.881-20
 CH3             8.021 -7 6.810 -7 2.741 -7 4.944-10
 CH2OH           1.665-10 1.295-10 3.379-11 4.570-15
 CH3O            5.974-12 4.482-12 9.459-13 3.706-17
 CH4             6.0228-2 6.0450-2 7.0952-2 8.6304-2
 CH3OH           6.1783-7 5.4820-7 3.3718-7 8.1374-9
 *CO             2.8483-1 2.8409-1 2.7359-1 1.3289-1
 *CO2            2.8389-2 2.9065-2 3.6073-2 9.1190-2
 COOH            9.050-10 7.365-10 2.451-10 1.828-13
 C2H             2.041-16 1.301-16 8.601-18 1.453-25
 C2H2,acetylene  3.264 -7 2.754 -7 1.041 -7 7.163-11
 C2H2,vinylidene 2.801-13 1.976-13 2.549-14 2.326-20
 CH2CO,ketene    9.6046-7 8.3111-7 4.0245-7 1.3347-9
 O(CH)2O         6.149-12 4.842-12 1.466-12 3.065-16
 HO(CO)2OH       9.922-15 7.879-15 3.038-15 3.254-18
 C2H3,vinyl      3.420-11 2.567-11 5.116-12 6.353-17
 CH3CO,acetyl    4.726-10 3.732-10 1.112-10 1.811-14
 C2H4            1.4668-5 1.3325-5 8.9167-6 1.7590-7
 C2H4O,ethylen-o 6.836-13 5.358-13 1.627-13 2.802-17
 CH3CHO,ethanal  1.769 -7 1.552 -7 9.247 -8 9.638-10
 CH3COOH         7.939 -9 6.997 -9 4.741 -9 1.253-10
 OHCH2COOH       3.076-13 2.422-13 9.170-14 7.694-17
 C2H5            2.520 -9 2.037 -9 7.193-10 2.644-13
 C2H6            1.5442-5 1.4461-5 1.3196-5 1.5387-6
 C2H5OH          1.583 -9 1.336 -9 7.191-10 3.575-12
 CH3OCH3         3.423-12 2.753-12 1.110-12 9.326-16
 C2O             8.019-15 5.506-15 5.855-16 2.058-22
 C3H3,1-propynl  1.543-16 1.025-16 1.024-17 9.376-25
 C3H3,2-propynl  1.411-11 1.046-11 2.010-12 1.051-17
 C3H4,allene     7.495-10 6.070-10 2.116-10 4.023-14
 C3H4,propyne    2.216 -9 1.807 -9 6.555-10 1.576-13
 C3H4,cyclo-     3.581-13 2.667-13 5.630-14 4.956-19
 C3H5,allyl      9.717-11 7.653-11 2.409-11 2.353-15
 C3H6,propylene  5.777 -8 4.999 -8 2.949 -8 1.232-10
 C3H6,cyclo-     8.290-11 6.936-11 3.346-11 4.186-14
 C3H6O,propylox  2.459-15 1.849-15 5.156-16 2.427-20
 C3H6O,acetone   4.431-10 3.775-10 2.229-10 9.991-13
 C3H6O,propanal  1.110-10 9.121-11 4.337-11 5.296-14
 C3H7,n-propyl   1.811-12 1.373-12 3.894-13 1.727-17
 C3H7,i-propyl   2.021-12 1.550-12 4.710-13 3.122-17
 C3H8            1.189 -8 1.047 -8 7.789 -9 1.204-10
 C3H8O,1propanol 1.132-12 9.001-13 3.992-13 2.770-16
 C3H8O,2propanol 1.465-12 1.180-12 5.656-13 6.463-16
 C3O2            4.203-11 3.354-11 1.006-11 1.134-15
 C4H2,butadiyne  7.758-14 5.508-14 7.972-15 4.090-21
 C4H6,butadiene  6.848-11 5.507-11 2.178-11 4.281-15
 C4H6,1butyne    1.828-12 1.400-12 4.125-13 1.279-17
 C4H6,2butyne    2.649-12 2.077-12 7.040-13 5.046-17
 C4H6,cyclo-     5.683-14 4.400-14 1.384-14 6.562-19
 C4H8,1-butene   4.156-11 3.382-11 1.630-11 9.099-15
 C4H8,cis2-buten 2.195-11 1.806-11 9.269-12 7.483-15
 C4H8,tr2-butene 2.472-11 2.034-11 1.047-11 8.710-15
 C4H8,isobutene  3.114-11 2.576-11 1.370-11 1.391-14
 C4H8,cyclo-     1.025-14 8.125-15 3.343-15 7.258-19
 C4H9,n-butyl    4.027-15 2.905-15 7.213-16 6.576-21
 C4H9,i-butyl    2.722-15 1.979-15 5.171-16 6.480-21
 C4H9,s-butyl    2.742-15 1.980-15 4.946-16 4.566-21
 C4H9,t-butyl    1.154-15 8.547-16 2.486-16 5.696-21
 C4H10,n-butane  9.215-12 7.622-12 4.597-12 9.162-15
 C4H10,isobutane 3.648-12 3.043-12 1.930-12 5.268-15
 C5H6,1,3cyclo-  5.358-13 4.337-13 1.853-13 2.977-17
 C5H8,cyclo-     4.922-14 3.971-14 1.886-14 5.135-18
 C5H10,1-pentene 2.554-14 1.957-14 7.733-15 5.788-19
 C5H10,cyclo-    1.493-15 1.213-15 6.833-16 4.722-19
 C5H12,n-pentane 6.081-15 4.725-15 2.311-15 6.034-19
 C5H12,i-pentane 6.110-15 4.762-15 2.379-15 7.512-19
 CH3C(CH3)2CH3   3.635-16 2.843-16 1.460-16 6.237-20
 C6H6            5.053-12 4.419-12 3.116-12 5.485-15
 C6H5OH,phenol   4.967-15 4.013-15 1.934-15 3.608-19
 C7H8            2.929-14 2.442-14 1.527-14 5.873-18
 *H              3.379 -7 2.866 -7 9.748 -8 1.526-10
 HCO             2.381 -8 1.939 -8 5.891 -9 2.301-12
 HCCO            1.342-12 9.785-13 1.589-13 6.970-19
 *H2             5.1537-1 5.1565-1 5.0369-1 4.5062-1
 HCHO,formaldehy 6.8447-6 6.1476-6 3.5832-6 7.1201-8
 HCOOH           1.7938-6 1.6237-6 1.0940-6 6.1288-8
 H2O             1.1113-1 1.1070-1 1.1567-1 1.5851-1
 H2O2            1.167-15 8.148-16 1.106-16 6.208-22
 (HCOOH)2        3.045-16 2.367-16 9.141-17 9.330-20
 *O              8.548-16 5.796-16 5.302-17 2.960-23
 *OH             1.714 -9 1.363 -9 3.451-10 8.826-14
 C(gr)           0.0000 0 0.0000 0 0.0000 0 8.0484-2

  * THERMODYNAMIC PROPERTIES FITTED TO 20000.K

 NOTE. WEIGHT FRACTION OF FUEL IN TOTAL FUELS AND OF OXIDANT IN TOTAL OXIDANTS

              THEORETICAL ROCKET PERFORMANCE ASSUMING EQUILIBRIUM

            COMPOSITION DURING EXPANSION FROM FINITE AREA COMBUSTOR

 Pin =  1469.6 PSIA
 Ac/At =  2.0000      Pinj/Pinf =  1.053593
 CASE = test___________

             REACTANT                    WT FRACTION      ENERGY      TEMP
                                          (SEE NOTE)     KJ/KG-MOL      K  
 FUEL        CH4(L)                       1.0000000    -89233.000    111.643
 OXIDANT     O2(L)                        1.0000000    -12979.000     90.170

 O/F=    1.17331  %FUEL= 46.012705  R,EQ.RATIO= 3.400000  PHI,EQ.RATIO= 3.400000

                 INJECTOR  COMB END  THROAT     EXIT
 Pinj/P            1.0000   1.1164   1.8573   53.825
 P, BAR            101.33   90.757   54.555   1.8825
 T, K             1381.37  1366.05  1281.57   927.39
 RHO, KG/CU M    1.1734 1 1.0632 1 6.9400 0 3.6854-1
 H, KJ/KG        -2778.34 -2828.04 -3244.94 -5363.65
 U, KJ/KG        -3641.86 -3681.66 -4031.03 -5874.45
 G, KJ/KG        -22058.7 -21939.3 -21174.4 -18338.0
 S, KJ/(KG)(K)    13.9575  13.9902  13.9902  13.9902

 M, (1/n)          13.301   13.306   13.555   15.096
 MW, MOL WT        13.301   13.306   13.555   13.729
 (dLV/dLP)t      -1.10663 -1.10679 -1.11222 -1.10981
 (dLV/dLT)p        2.0812   2.0960   2.2344   2.6708
 Cp, KJ/(KG)(K)    9.8814  10.0537  11.3484  17.8226
 GAMMAs            1.2010   1.1994   1.1871   1.1244
 SON VEL,M/SEC     1018.4   1011.8    966.0    757.8
 MACH NUMBER        0.000    0.312    1.000    3.000

 PERFORMANCE PARAMETERS

 Ae/At                      2.0000   1.0000   8.0000
 CSTAR, M/SEC               1434.5   1434.5   1434.5
 CF                         0.2198   0.6734   1.5852
 Ivac, M/SEC                3022.7   1779.8   2498.5
 Isp, M/SEC                  315.3    966.0   2273.9

 MOLE FRACTIONS

 CH2             3.304-13 2.327-13 2.900-14 3.746-20
 CH3             7.653 -7 6.500 -7 2.614 -7 4.468-10
 CH2OH           1.467-10 1.141-10 3.003-11 4.037-15
 CH3O            5.067-12 3.806-12 8.131-13 3.204-17
 CH4             7.2160-2 7.2384-2 8.3128-2 9.0655-2
 CH3OH           6.5836-7 5.8416-7 3.5583-7 8.1552-9
 *CO             2.8016-1 2.7940-1 2.6877-1 1.2329-1
 *CO2            2.9082-2 2.9766-2 3.6832-2 8.9292-2
 COOH            7.654-10 6.234-10 2.105-10 1.598-13
 C2H             1.422-16 9.090-17 6.168-18 9.900-26
 C2H2,acetylene  3.216 -7 2.715 -7 1.020 -7 6.106-11
 C2H2,vinylidene 2.285-13 1.614-13 2.106-14 1.759-20
 CH2CO,ketene    9.8489-7 8.5245-7 4.0946-7 1.1987-9
 O(CH)2O         5.782-12 4.557-12 1.382-12 2.683-16
 HO(CO)2OH       9.661-15 7.675-15 2.966-15 3.079-18
 C2H3,vinyl      3.134-11 2.355-11 4.693-12 5.205-17
 CH3CO,acetyl    4.629-10 3.658-10 1.086-10 1.593-14
 C2H4            1.7304-5 1.5715-5 1.0275-5 1.7007-7
 C2H4O,ethylen-o 6.991-13 5.482-13 1.652-13 2.548-17
 CH3CHO,ethanal  2.037 -7 1.787 -7 1.044 -7 9.435-10
 CH3COOH         9.310 -9 8.205 -9 5.457 -9 1.278-10
 OHCH2COOH       3.244-13 2.555-13 9.608-14 7.563-17
 C2H5            2.765 -9 2.235 -9 7.761-10 2.459-13
 C2H6            2.0829-5 1.9491-5 1.7156-5 1.6404-6
 C2H5OH          1.938 -9 1.636 -9 8.583-10 3.689-12
 CH3OCH3         3.983-12 3.205-12 1.265-12 9.317-16
 C2O             5.817-15 4.002-15 4.360-16 1.468-22
 C3H3,1-propynl  1.360-16 9.057-17 9.055-18 6.969-25
 C3H3,2-propynl  1.396-11 1.036-11 1.972-12 8.409-18
 C3H4,allene     8.568-10 6.940-10 2.365-10 3.548-14
 C3H4,propyne    2.551 -9 2.080 -9 7.371-10 1.395-13
 C3H4,cyclo-     3.748-13 2.793-13 5.810-14 4.136-19
 C3H5,allyl      1.135-10 8.941-11 2.745-11 2.119-15
 C3H6,propylene  7.843 -8 6.783 -8 3.848 -8 1.226-10
 C3H6,cyclo-     1.086-10 9.085-11 4.229-11 4.079-14
 C3H6O,propylox  2.915-15 2.192-15 5.964-16 2.284-20
 C3H6O,acetone   5.994-10 5.103-10 2.904-10 1.020-12
 C3H6O,propanal  1.445-10 1.187-10 5.459-11 5.283-14
 C3H7,n-propyl   2.249-12 1.705-12 4.687-13 1.637-17
 C3H7,i-propyl   2.540-12 1.948-12 5.732-13 2.980-17
 C3H8            1.820 -8 1.601 -8 1.132 -8 1.311-10
 C3H8O,1propanol 1.576-12 1.253-12 5.337-13 2.920-16
 C3H8O,2propanol 2.068-12 1.665-12 7.656-13 6.878-16
 C3O2            3.960-11 3.163-11 9.480-12 9.114-16
 C4H2,butadiyne  7.626-14 5.420-14 7.759-15 3.011-21
 C4H6,butadiene  9.413-11 7.569-11 2.868-11 4.003-15
 C4H6,1butyne    2.387-12 1.828-12 5.184-13 1.156-17
 C4H6,2butyne    3.546-12 2.780-12 9.045-13 4.629-17
 C4H6,cyclo-     7.504-14 5.810-14 1.758-14 5.977-19
 C4H8,1-butene   6.405-11 5.210-11 2.378-11 9.251-15
 C4H8,cis2-buten 3.422-11 2.813-11 1.366-11 7.657-15
 C4H8,tr2-butene 3.855-11 3.170-11 1.544-11 8.919-15
 C4H8,isobutene  4.883-11 4.037-11 2.030-11 1.429-14
 C4H8,cyclo-     1.536-14 1.217-14 4.758-15 7.257-19
 C4H9,n-butyl    5.748-15 4.145-15 9.820-16 6.417-21
 C4H9,i-butyl    3.919-15 2.850-15 7.097-16 6.360-21
 C4H9,s-butyl    3.919-15 2.829-15 6.740-16 4.455-21
 C4H9,t-butyl    1.694-15 1.254-15 3.470-16 5.647-21
 C4H10,n-butane  1.600-11 1.322-11 7.467-12 1.018-14
 C4H10,isobutane 6.388-12 5.322-12 3.160-12 5.887-15
 C5H6,1,3cyclo-  8.114-13 6.565-13 2.657-13 2.749-17
 C5H8,cyclo-     8.222-14 6.627-14 2.954-14 5.112-18
 C5H10,1-pentene 4.474-14 3.425-14 1.263-14 6.009-19
 C5H10,cyclo-    2.782-15 2.258-15 1.181-15 5.105-19
 C5H12,n-pentane 1.197-14 9.287-15 4.195-15 6.848-19
 C5H12,i-pentane 1.206-14 9.392-15 4.335-15 8.559-19
 CH3C(CH3)2CH3   7.205-16 5.631-16 2.675-16 7.154-20
 C6H6            9.084-12 7.933-12 5.203-12 5.243-15
 C6H5OH,phenol   8.318-15 6.713-15 3.034-15 3.393-19
 C7H8            6.064-14 5.049-14 2.889-14 5.782-18
 C8H8,styrene    1.191-16 9.189-17 3.433-17 2.524-22
 *H              2.659 -7 2.258 -7 7.842 -8 1.301-10
 HCO             1.989 -8 1.622 -8 4.994 -9 1.940-12
 HCCO            1.091-12 7.968-13 1.311-13 5.376-19
 *H2             5.0807-1 5.0836-1 4.9628-1 4.4484-1
 HCHO,formaldehy 6.6728-6 5.9947-6 3.4911-6 6.6596-8
 HCOOH           1.7863-6 1.6173-6 1.0892-6 5.9876-8
 H2O             1.1048-1 1.1004-1 1.1496-1 1.6139-1
 H2O2            8.074-16 5.646-16 7.939-17 5.178-22
 (HCOOH)2        3.210-16 2.496-16 9.591-17 9.425-20
 *O              5.112-16 3.475-16 3.335-17 2.167-23
 *OH             1.276 -9 1.016 -9 2.643-10 7.452-14
 C(gr)           0.0000 0 0.0000 0 0.0000 0 9.0530-2

  * THERMODYNAMIC PROPERTIES FITTED TO 20000.K

 NOTE. WEIGHT FRACTION OF FUEL IN TOTAL FUELS AND OF OXIDANT IN TOTAL OXIDANTS

              THEORETICAL ROCKET PERFORMANCE ASSUMING EQUILIBRIUM

            COMPOSITION DURING EXPANSION FROM FINITE AREA COMBUSTOR

 Pin =  1469.6 PSIA
 Ac/At =  2.0000      Pinj/Pinf =  1.053474
 CASE = test___________

             REACTANT                    WT FRACTION      ENERGY      TEMP
                                          (SEE NOTE)     KJ/KG-MOL      K  
 FUEL        CH4(L)                       1.0000000    -89233.000    111.643
 OXIDANT     O2(L)                        1.0000000    -12979.000     90.170

 O/F=    1.13979  %FUEL= 46.733567  R,EQ.RATIO= 3.500000  PHI,EQ.RATIO= 3.500000

                 INJECTOR  COMB END  THROAT     EXIT
 Pinj/P            1.0000   1.1162   1.8549   53.530
 P, BAR            101.33   90.779   54.624   1.8929
 T, K             1366.65  1351.74  1269.98   922.66
 RHO, KG/CU M    1.1922 1 1.0803 1 7.0480 0 3.7333-1
 H, KJ/KG        -2815.52 -2864.33 -3274.22 -5370.02
 U, KJ/KG        -3665.43 -3704.66 -4049.25 -5877.04
 G, KJ/KG        -21858.7 -21743.6 -21011.5 -18256.5
 S, KJ/(KG)(K)    13.9342  13.9666  13.9666  13.9666

 M, (1/n)          13.370   13.375   13.624   15.130
 MW, MOL WT        13.370   13.375   13.624   13.620
 (dLV/dLP)t      -1.11160 -1.11174 -1.11616 -1.10926
 (dLV/dLT)p        2.1449   2.1600   2.2903   2.6526
 Cp, KJ/(KG)(K)   10.3633  10.5421  11.7968  17.5692
 GAMMAs            1.1968   1.1953   1.1837   1.1246
 SON VEL,M/SEC     1008.6   1002.2    957.8    755.1
 MACH NUMBER        0.000    0.312    1.000    2.993

 PERFORMANCE PARAMETERS

 Ae/At                      2.0000   1.0000   8.0000
 CSTAR, M/SEC               1424.8   1424.8   1424.8
 CF                         0.2193   0.6723   1.5864
 Ivac, M/SEC                3001.9   1767.0   2484.6
 Isp, M/SEC                  312.5    957.8   2260.3

 MOLE FRACTIONS

 CH2             2.507-13 1.769-13 2.245-14 2.859-20
 CH3             7.269 -7 6.178 -7 2.484 -7 4.026-10
 CH2OH           1.301-10 1.014-10 2.684-11 3.551-15
 CH3O            4.345-12 3.268-12 7.048-13 2.757-17
 CH4             8.4121-2 8.4343-2 9.5274-2 9.5128-2
 CH3OH           6.9301-7 6.1491-7 3.7174-7 8.1499-9
 *CO             2.7547-1 2.7470-1 2.6395-1 1.1434-1
 *CO2            2.9781-2 3.0472-2 3.7592-2 8.7430-2
 COOH            6.585-10 5.368-10 1.832-10 1.392-13
 C2H             1.013-16 6.492-17 4.501-18 6.697-26
 C2H2,acetylene  3.131 -7 2.644 -7 9.901 -8 5.187-11
 C2H2,vinylidene 1.875-13 1.327-13 1.747-14 1.322-20
 CH2CO,ketene    9.9775-7 8.6379-7 4.1246-7 1.0731-9
 O(CH)2O         5.438-12 4.289-12 1.303-12 2.339-16
 HO(CO)2OH       9.450-15 7.511-15 2.904-15 2.900-18
 C2H3,vinyl      2.854-11 2.146-11 4.283-12 4.240-17
 CH3CO,acetyl    4.495-10 3.554-10 1.052-10 1.394-14
 C2H4            1.9778-5 1.7959-5 1.1543-5 1.6397-7
 C2H4O,ethylen-o 7.050-13 5.532-13 1.657-13 2.306-17
 CH3CHO,ethanal  2.287 -7 2.005 -7 1.155 -7 9.206-10
 CH3COOH         1.067 -8 9.401 -9 6.162 -9 1.300-10
 OHCH2COOH       3.390-13 2.671-13 9.986-14 7.398-17
 C2H5            2.956 -9 2.390 -9 8.201-10 2.276-13
 C2H6            2.6814-5 2.5077-5 2.1482-5 1.7439-6
 C2H5OH          2.296 -9 1.937 -9 9.969-10 3.790-12
 CH3OCH3         4.505-12 3.625-12 1.409-12 9.263-16
 C2O             4.319-15 2.977-15 3.307-16 1.041-22
 C3H3,1-propynl  1.190-16 7.934-17 7.949-18 5.141-25
 C3H3,2-propynl  1.355-11 1.006-11 1.905-12 6.687-18
 C3H4,allene     9.464-10 7.668-10 2.571-10 3.114-14
 C3H4,propyne    2.836 -9 2.313 -9 8.058-10 1.230-13
 C3H4,cyclo-     3.822-13 2.851-13 5.871-14 3.430-19
 C3H5,allyl      1.277-10 1.006-10 3.035-11 1.899-15
 C3H6,propylene  1.010 -7 8.730 -8 4.810 -8 1.216-10
 C3H6,cyclo-     1.354-10 1.133-10 5.135-11 3.956-14
 C3H6O,propylox  3.333-15 2.507-15 6.698-16 2.135-20
 C3H6O,acetone   7.722-10 6.572-10 3.636-10 1.037-12
 C3H6O,propanal  1.799-10 1.477-10 6.624-11 5.245-14
 C3H7,n-propyl   2.669-12 2.024-12 5.438-13 1.542-17
 C3H7,i-propyl   3.048-12 2.338-12 6.717-13 2.827-17
 C3H8            2.607 -8 2.292 -8 1.560 -8 1.421-10
 C3H8O,1propanol 2.081-12 1.653-12 6.831-13 3.061-16
 C3H8O,2propanol 2.764-12 2.224-12 9.911-13 7.279-16
 C3O2            3.718-11 2.971-11 8.906-12 7.294-16
 C4H2,butadiyne  7.323-14 5.210-14 7.409-15 2.202-21
 C4H6,butadiene  1.219-10 9.800-11 3.600-11 3.722-15
 C4H6,1butyne    2.950-12 2.260-12 6.232-13 1.038-17
 C4H6,2butyne    4.481-12 3.513-12 1.110-12 4.220-17
 C4H6,cyclo-     9.371-14 7.256-14 2.134-14 5.412-19
 C4H8,1-butene   9.178-11 7.461-11 3.273-11 9.352-15
 C4H8,cis2-buten 4.953-11 4.069-11 1.897-11 7.790-15
 C4H8,tr2-butene 5.582-11 4.587-11 2.145-11 9.082-15
 C4H8,isobutene  7.107-11 5.873-11 2.834-11 1.461-14
 C4H8,cyclo-     2.146-14 1.700-14 6.399-15 7.211-19
 C4H9,n-butyl    7.676-15 5.535-15 1.267-15 6.213-21
 C4H9,i-butyl    5.276-15 3.836-15 9.223-16 6.195-21
 C4H9,s-butyl    5.238-15 3.781-15 8.700-16 4.313-21
 C4H9,t-butyl    2.320-15 1.717-15 4.579-16 5.556-21
 C4H10,n-butane  2.546-11 2.102-11 1.131-11 1.125-14
 C4H10,isobutane 1.025-11 8.533-12 4.822-12 6.542-15
 C5H6,1,3cyclo-  1.140-12 9.222-13 3.587-13 2.524-17
 C5H8,cyclo-     1.260-13 1.015-13 4.314-14 5.057-18
 C5H10,1-pentene 7.139-14 5.462-14 1.913-14 6.193-19
 C5H10,cyclo-    4.695-15 3.807-15 1.885-15 5.483-19
 C5H12,n-pentane 2.118-14 1.642-14 6.988-15 7.713-19
 C5H12,i-pentane 2.141-14 1.666-14 7.248-15 9.679-19
 CH3C(CH3)2CH3   1.284-15 1.003-15 4.494-16 8.148-20
 C6H6            1.482-11 1.293-11 8.034-12 4.985-15
 C6H5OH,phenol   1.278-14 1.031-14 4.440-15 3.170-19
 C7H7,benzyl     1.222-16 9.099-17 2.398-17 3.502-23
 C7H8            1.115-13 9.275-14 4.969-14 5.657-18
 C8H8,styrene    2.196-16 1.692-16 5.907-17 2.307-22
 C8H10,ethylbenz 1.115-16 8.697-17 3.662-17 4.395-22
 *H              2.138 -7 1.818 -7 6.420 -8 1.107-10
 HCO             1.686 -8 1.376 -8 4.281 -9 1.631-12
 HCCO            8.976-13 6.562-13 1.092-13 4.124-19
 *H2             5.0050-1 5.0081-1 4.8869-1 4.3901-1
 HCHO,formaldehy 6.4951-6 5.8364-6 3.3964-6 6.2146-8
 HCOOH           1.7795-6 1.6114-6 1.0843-6 5.8373-8
 H2O             1.1007-1 1.0962-1 1.1445-1 1.6423-1
 H2O2            5.819-16 4.076-16 5.885-17 4.295-22
 (HCOOH)2        3.366-16 2.619-16 1.001-16 9.474-20
 *O              3.225-16 2.197-16 2.188-17 1.577-23
 *OH             9.802-10 7.814-10 2.075-10 6.270-14
 C(gr)           0.0000 0 0.0000 0 0.0000 0 9.9854-2

  * THERMODYNAMIC PROPERTIES FITTED TO 20000.K

 NOTE. WEIGHT FRACTION OF FUEL IN TOTAL FUELS AND OF OXIDANT IN TOTAL OXIDANTS

              THEORETICAL ROCKET PERFORMANCE ASSUMING EQUILIBRIUM

            COMPOSITION DURING EXPANSION FROM FINITE AREA COMBUSTOR

 Pin =  1469.6 PSIA
 Ac/At =  2.0000      Pinj/Pinf =  1.053368
 CASE = test___________

             REACTANT                    WT FRACTION      ENERGY      TEMP
                                          (SEE NOTE)     KJ/KG-MOL      K  
 FUEL        CH4(L)                       1.0000000    -89233.000    111.643
 OXIDANT     O2(L)                        1.0000000    -12979.000     90.170

 O/F=    1.10813  %FUEL= 47.435433  R,EQ.RATIO= 3.600000  PHI,EQ.RATIO= 3.600000

                 INJECTOR  COMB END  THROAT     EXIT
 Pinj/P            1.0000   1.1159   1.8529   53.279
 P, BAR            101.33   90.798   54.686   1.9018
 T, K             1353.42  1338.86  1259.40   917.90
 RHO, KG/CU M    1.2103 1 1.0967 1 7.1523 0 3.7795-1
 H, KJ/KG        -2851.71 -2899.70 -3303.08 -5377.33
 U, KJ/KG        -3688.91 -3727.60 -4067.67 -5880.52
 G, KJ/KG        -21677.7 -21566.4 -20861.9 -18174.8
 S, KJ/(KG)(K)    13.9100  13.9422  13.9422  13.9422

 M, (1/n)          13.441   13.446   13.695   15.167
 MW, MOL WT        13.441   13.446   13.695   13.522
 (dLV/dLP)t      -1.11538 -1.11551 -1.11909 -1.10864
 (dLV/dLT)p        2.1962   2.2116   2.3349   2.6339
 Cp, KJ/(KG)(K)   10.7609  10.9444  12.1624  17.3106
 GAMMAs            1.1932   1.1917   1.1807   1.1249
 SON VEL,M/SEC      999.5    993.3    950.1    752.4
 MACH NUMBER        0.000    0.312    1.000    2.987

 PERFORMANCE PARAMETERS

 Ae/At                      2.0000   1.0000   8.0000
 CSTAR, M/SEC               1415.5   1415.5   1415.5
 CF                         0.2189   0.6712   1.5878
 Ivac, M/SEC                2982.1   1754.9   2471.4
 Isp, M/SEC                  309.8    950.1   2247.5

 MOLE FRACTIONS

 CH2             1.933-13 1.366-13 1.759-14 2.172-20
 CH3             6.883 -7 5.853 -7 2.354 -7 3.617-10
 CH2OH           1.161-10 9.048-11 2.408-11 3.111-15
 CH3O            3.757-12 2.828-12 6.148-13 2.361-17
 CH4             9.6053-2 9.6271-2 1.0735-1 9.9720-2
 CH3OH           7.2271-7 6.4127-7 3.8531-7 8.1233-9
 *CO             2.7078-1 2.7001-1 2.5917-1 1.0600-1
 *CO2            3.0483-2 3.1181-2 3.8348-2 8.5596-2
 COOH            5.739-10 4.681-10 1.610-10 1.208-13
 C2H2,acetylene  3.021 -7 2.553 -7 9.536 -8 4.394-11
 C2H2,vinylidene 1.547-13 1.096-13 1.456-14 9.887-21
 CH2CO,ketene    1.002 -6 8.674 -7 4.123 -7 9.581-10
 O(CH)2O         5.116-12 4.037-12 1.228-12 2.031-16
 HO(CO)2OH       9.273-15 7.372-15 2.849-15 2.721-18
 C2H3,vinyl      2.588-11 1.948-11 3.893-12 3.439-17
 CH3CO,acetyl    4.337-10 3.431-10 1.014-10 1.215-14
 C2H4            2.2074-5 2.0042-5 1.2715-5 1.5769-7
 C2H4O,ethylen-o 7.036-13 5.524-13 1.648-13 2.078-17
 CH3CHO,ethanal  2.519 -7 2.208 -7 1.258 -7 8.955-10
 CH3COOH         1.201 -8 1.058 -8 6.855 -9 1.319-10
 OHCH2COOH       3.518-13 2.773-13 1.031-13 7.206-17
 C2H5            3.100 -9 2.508 -9 8.529-10 2.098-13
 C2H6            3.3324-5 3.1151-5 2.6129-5 1.8492-6
 C2H5OH          2.651 -9 2.236 -9 1.134 -9 3.878-12
 CH3OCH3         4.987-12 4.013-12 1.541-12 9.167-16
 C2O             3.266-15 2.255-15 2.545-16 7.341-23
 C3H3,1-propynl  1.035-16 6.909-17 6.943-18 3.769-25
 C3H3,2-propynl  1.296-11 9.634-12 1.817-12 5.291-18
 C3H4,allene     1.019 -9 8.258-10 2.736-10 2.722-14
 C3H4,propyne    3.071 -9 2.505 -9 8.620-10 1.080-13
 C3H4,cyclo-     3.824-13 2.855-13 5.839-14 2.831-19
 C3H5,allyl      1.397-10 1.101-10 3.278-11 1.693-15
 C3H6,propylene  1.249 -7 1.080 -7 5.818 -8 1.201-10
 C3H6,cyclo-     1.627-10 1.361-10 6.047-11 3.821-14
 C3H6O,propylox  3.709-15 2.791-15 7.353-16 1.985-20
 C3H6O,acetone   9.589-10 8.158-10 4.416-10 1.049-12
 C3H6O,propanal  2.164-10 1.777-10 7.814-11 5.183-14
 C3H7,n-propyl   3.061-12 2.322-12 6.133-13 1.445-17
 C3H7,i-propyl   3.532-12 2.710-12 7.645-13 2.668-17
 C3H8            3.551 -8 3.120 -8 2.062 -8 1.534-10
 C3H8O,1propanol 2.637-12 2.095-12 8.453-13 3.192-16
 C3H8O,2propanol 3.542-12 2.850-12 1.240-12 7.664-16
 C3O2            3.482-11 2.784-11 8.345-12 5.816-16
 C4H2,butadiyne  6.913-14 4.924-14 6.975-15 1.601-21
 C4H6,butadiene  1.509-10 1.213-10 4.353-11 3.444-15
 C4H6,1butyne    3.498-12 2.681-12 7.241-13 9.275-18
 C4H6,2butyne    5.424-12 4.253-12 1.314-12 3.828-17
 C4H6,cyclo-     1.122-13 8.690-14 2.502-14 4.873-19
 C4H8,1-butene   1.245-10 1.012-10 4.303-11 9.404-15
 C4H8,cis2-buten 6.779-11 5.567-11 2.515-11 7.886-15
 C4H8,tr2-butene 7.642-11 6.279-11 2.845-11 9.200-15
 C4H8,isobutene  9.778-11 8.076-11 3.775-11 1.485-14
 C4H8,cyclo-     2.844-14 2.253-14 8.238-15 7.126-19
 C4H9,n-butyl    9.748-15 7.031-15 1.567-15 5.975-21
 C4H9,i-butyl    6.750-15 4.909-15 1.149-15 5.993-21
 C4H9,s-butyl    6.659-15 4.808-15 1.077-15 4.147-21
 C4H9,t-butyl    3.015-15 2.232-15 5.787-16 5.432-21
 C4H10,n-butane  3.797-11 3.133-11 1.624-11 1.236-14
 C4H10,isobutane 1.540-11 1.281-11 6.968-12 7.232-15
 C5H6,1,3cyclo-  1.514-12 1.225-12 4.623-13 2.305-17
 C5H8,cyclo-     1.808-13 1.456-13 5.973-14 4.975-18
 C5H10,1-pentene 1.062-13 8.121-14 2.736-14 6.341-19
 C5H10,cyclo-    7.354-15 5.960-15 2.828-15 5.855-19
 C5H12,n-pentane 3.458-14 2.679-14 1.089-14 8.628-19
 C5H12,i-pentane 3.507-14 2.727-14 1.134-14 1.087-18
 CH3C(CH3)2CH3   2.110-15 1.648-15 7.062-16 9.219-20
 C6H6            2.246-11 1.959-11 1.168-11 4.719-15
 C6H5OH,phenol   1.839-14 1.483-14 6.157-15 2.947-19
 C7H7,benzyl     1.789-16 1.332-16 3.371-17 3.038-23
 C7H8            1.876-13 1.559-13 7.939-14 5.502-18
 C7H8O,cresol-mx 1.245-16 9.574-17 3.415-17 2.934-22
 C8H8,styrene    3.684-16 2.837-16 9.405-17 2.094-22
 C8H10,ethylbenz 2.051-16 1.599-16 6.349-17 4.348-22
 *H              1.750 -7 1.489 -7 5.328 -8 9.393-11
 HCO             1.445 -8 1.180 -8 3.703 -9 1.366-12
 HCCO            7.447-13 5.451-13 9.154-14 3.149-19
 *H2             4.9277-1 4.9310-1 4.8101-1 4.3314-1
 HCHO,formaldehy 6.3147-6 5.6755-6 3.3005-6 5.7876-8
 HCOOH           1.7730-6 1.6057-6 1.0791-6 5.6796-8
 H2O             1.0984-1 1.0937-1 1.1408-1 1.6705-1
 H2O2            4.326-16 3.035-16 4.473-17 3.546-22
 (HCOOH)2        3.516-16 2.735-16 1.041-16 9.479-20
 *O              2.119-16 1.447-16 1.484-17 1.143-23
 *OH             7.710-10 6.153-10 1.661-10 5.261-14
 C(gr)           0.0000 0 0.0000 0 0.0000 0 1.0850-1

  * THERMODYNAMIC PROPERTIES FITTED TO 20000.K

 NOTE. WEIGHT FRACTION OF FUEL IN TOTAL FUELS AND OF OXIDANT IN TOTAL OXIDANTS

              THEORETICAL ROCKET PERFORMANCE ASSUMING EQUILIBRIUM

            COMPOSITION DURING EXPANSION FROM FINITE AREA COMBUSTOR

 Pin =  1469.6 PSIA
 Ac/At =  2.0000      Pinj/Pinf =  1.053272
 CASE = test___________

             REACTANT                    WT FRACTION      ENERGY      TEMP
                                          (SEE NOTE)     KJ/KG-MOL      K  
 FUEL        CH4(L)                       1.0000000    -89233.000    111.643
 OXIDANT     O2(L)                        1.0000000    -12979.000     90.170

 O/F=    1.07818  %FUEL= 48.119043  R,EQ.RATIO= 3.700000  PHI,EQ.RATIO= 3.700000

                 INJECTOR  COMB END  THROAT     EXIT
 Pinj/P            1.0000   1.1157   1.8510   53.064
 P, BAR            101.33   90.816   54.742   1.9095
 T, K             1341.34  1327.11  1249.65   913.12
 RHO, KG/CU M    1.2278 1 1.1127 1 7.2535 0 3.8244-1
 H, KJ/KG        -2886.96 -2934.19 -3331.46 -5385.35
 U, KJ/KG        -3712.19 -3750.39 -4086.16 -5884.65
 G, KJ/KG        -21511.6 -21403.6 -20722.9 -18093.3
 S, KJ/(KG)(K)    13.8851  13.9171  13.9171  13.9171

 M, (1/n)          13.514   13.519   13.767   15.206
 MW, MOL WT        13.514   13.519   13.767   13.434
 (dLV/dLP)t      -1.11823 -1.11834 -1.12124 -1.10796
 (dLV/dLT)p        2.2378   2.2532   2.3703   2.6148
 Cp, KJ/(KG)(K)   11.0906  11.2774  12.4609  17.0485
 GAMMAs            1.1898   1.1884   1.1779   1.1253
 SON VEL,M/SEC      990.9    984.9    942.9    749.6
 MACH NUMBER        0.000    0.312    1.000    2.982

 PERFORMANCE PARAMETERS

 Ae/At                      2.0000   1.0000   8.0000
 CSTAR, M/SEC               1406.6   1406.6   1406.6
 CF                         0.2185   0.6703   1.5892
 Ivac, M/SEC                2963.1   1743.3   2458.7
 Isp, M/SEC                  307.3    942.9   2235.4

 MOLE FRACTIONS

 CH2             1.509-13 1.068-13 1.394-14 1.643-20
 CH3             6.502 -7 5.532 -7 2.226 -7 3.241-10
 CH2OH           1.040-10 8.112-11 2.168-11 2.715-15
 CH3O            3.270-12 2.464-12 5.391-13 2.015-17
 CH4             1.0792-1 1.0813-1 1.1934-1 1.0443-1
 CH3OH           7.4818-7 6.6387-7 3.9687-7 8.0772-9
 *CO             2.6611-1 2.6535-1 2.5442-1 9.8238-2
 *CO2            3.1186-2 3.1889-2 3.9100-2 8.3784-2
 COOH            5.051-10 4.123-10 1.427-10 1.046-13
 C2H2,acetylene  2.895 -7 2.448 -7 9.132 -8 3.713-11
 C2H2,vinylidene 1.281-13 9.090-14 1.216-14 7.362-21
 CH2CO,ketene    9.985 -7 8.649 -7 4.097 -7 8.533-10
 O(CH)2O         4.812-12 3.799-12 1.156-12 1.758-16
 HO(CO)2OH       9.118-15 7.250-15 2.799-15 2.543-18
 C2H3,vinyl      2.339-11 1.762-11 3.529-12 2.779-17
 CH3CO,acetyl    4.163-10 3.296-10 9.730-11 1.055-14
 C2H4            2.4186-5 2.1960-5 1.3790-5 1.5132-7
 C2H4O,ethylen-o 6.966-13 5.472-13 1.627-13 1.865-17
 CH3CHO,ethanal  2.733 -7 2.396 -7 1.352 -7 8.687-10
 CH3COOH         1.334 -8 1.175 -8 7.535 -9 1.334-10
 OHCH2COOH       3.630-13 2.862-13 1.060-13 6.990-17
 C2H5            3.204 -9 2.593 -9 8.758-10 1.927-13
 C2H6            4.0292-5 3.7651-5 3.1058-5 1.9562-6
 C2H5OH          3.001 -9 2.532 -9 1.268 -9 3.954-12
 CH3OCH3         5.429-12 4.369-12 1.661-12 9.036-16
 C2O             2.505-15 1.732-15 1.981-16 5.156-23
 C3H3,2-propynl  1.227-11 9.127-12 1.718-12 4.169-18
 C3H4,allene     1.075 -9 8.720-10 2.863-10 2.371-14
 C3H4,propyne    3.259 -9 2.659 -9 9.066-10 9.444-14
 C3H4,cyclo-     3.771-13 2.817-13 5.735-14 2.326-19
 C3H5,allyl      1.496-10 1.180-10 3.476-11 1.504-15
 C3H6,propylene  1.498 -7 1.295 -7 6.857 -8 1.182-10
 C3H6,cyclo-     1.899-10 1.588-10 6.949-11 3.677-14
 C3H6O,propylox  4.042-15 3.042-15 7.930-16 1.837-20
 C3H6O,acetone   1.157 -9 9.841-10 5.234-10 1.058-12
 C3H6O,propanal  2.535-10 2.082-10 9.014-11 5.101-14
 C3H7,n-propyl   3.419-12 2.595-12 6.764-13 1.347-17
 C3H7,i-propyl   3.983-12 3.056-12 8.504-13 2.505-17
 C3H8            4.650 -8 4.084 -8 2.637 -8 1.650-10
 C3H8O,1propanol 3.238-12 2.572-12 1.018-12 3.311-16
 C3H8O,2propanol 4.395-12 3.536-12 1.508-12 8.030-16
 C3O2            3.254-11 2.603-11 7.804-12 4.623-16
 C4H2,butadiyne  6.441-14 4.593-14 6.493-15 1.159-21
 C4H6,butadiene  1.804-10 1.451-10 5.111-11 3.172-15
 C4H6,1butyne    4.019-12 3.081-12 8.189-13 8.244-18
 C4H6,2butyne    6.351-12 4.980-12 1.512-12 3.456-17
 C4H6,cyclo-     1.300-13 1.007-13 2.853-14 4.368-19
 C4H8,1-butene   1.617-10 1.314-10 5.457-11 9.412-15
 C4H8,cis2-buten 8.884-11 7.294-11 3.215-11 7.945-15
 C4H8,tr2-butene 1.002-10 8.230-11 3.638-11 9.277-15
 C4H8,isobutene  1.288-10 1.063-10 4.848-11 1.503-14
 C4H8,cyclo-     3.617-14 2.865-14 1.024-14 7.007-19
 C4H9,n-butyl    1.191-14 8.592-15 1.877-15 5.711-21
 C4H9,i-butyl    8.302-15 6.040-15 1.385-15 5.763-21
 C4H9,s-butyl    8.141-15 5.879-15 1.291-15 3.963-21
 C4H9,t-butyl    3.764-15 2.786-15 7.067-16 5.279-21
 C4H10,n-butane  5.381-11 4.438-11 2.233-11 1.351-14
 C4H10,isobutane 2.197-11 1.827-11 9.644-12 7.954-15
 C5H6,1,3cyclo-  1.926-12 1.557-12 5.742-13 2.096-17
 C5H8,cyclo-     2.468-13 1.987-13 7.923-14 4.870-18
 C5H10,1-pentene 1.496-13 1.143-13 3.735-14 6.452-19
 C5H10,cyclo-    1.087-14 8.804-15 4.040-15 6.217-19
 C5H12,n-pentane 5.303-14 4.108-14 1.611-14 9.590-19
 C5H12,i-pentane 5.394-14 4.193-14 1.682-14 1.214-18
 CH3C(CH3)2CH3   3.257-15 2.543-15 1.052-15 1.037-19
 C6H6            3.217-11 2.804-11 1.619-11 4.449-15
 C6H5OH,phenol   2.516-14 2.028-14 8.182-15 2.725-19
 C6H10,cyclo-    1.035-16 7.953-17 2.712-17 2.993-22
 C6H12,1-hexene  1.373-16 9.871-17 2.535-17 4.376-23
 C7H7,benzyl     2.469-16 1.838-16 4.510-17 2.619-23
 C7H8            2.943-13 2.444-13 1.197-13 5.323-18
 C7H8O,cresol-mx 1.867-16 1.435-16 4.938-17 2.787-22
 C8H8,styrene    5.744-16 4.422-16 1.408-16 1.889-22
 C8H10,ethylbenz 3.480-16 2.711-16 1.028-16 4.273-22
 *H              1.451 -7 1.236 -7 4.471 -8 7.959-11
 HCO             1.249 -8 1.021 -8 3.225 -9 1.142-12
 HCCO            6.223-13 4.560-13 7.717-14 2.396-19
 *H2             4.8497-1 4.8532-1 4.7329-1 4.2723-1
 HCHO,formaldehy 6.1336-6 5.5138-6 3.2044-6 5.3803-8
 HCOOH           1.7664-6 1.5998-6 1.0737-6 5.5160-8
 H2O             1.0973-1 1.0924-1 1.1381-1 1.6982-1
 H2O2            3.295-16 2.315-16 3.468-17 2.915-22
 (HCOOH)2        3.658-16 2.847-16 1.078-16 9.442-20
 *O              1.438-16 9.835-17 1.033-17 8.254-24
 *OH             6.178-10 4.935-10 1.350-10 4.403-14
 C(gr)           0.0000 0 0.0000 0 0.0000 0 1.1650-1

  * THERMODYNAMIC PROPERTIES FITTED TO 20000.K

 NOTE. WEIGHT FRACTION OF FUEL IN TOTAL FUELS AND OF OXIDANT IN TOTAL OXIDANTS

              THEORETICAL ROCKET PERFORMANCE ASSUMING EQUILIBRIUM

            COMPOSITION DURING EXPANSION FROM FINITE AREA COMBUSTOR

 Pin =  1469.6 PSIA
 Ac/At =  2.0000      Pinj/Pinf =  1.053184
 CASE = test___________

             REACTANT                    WT FRACTION      ENERGY      TEMP
                                          (SEE NOTE)     KJ/KG-MOL      K  
 FUEL        CH4(L)                       1.0000000    -89233.000    111.643
 OXIDANT     O2(L)                        1.0000000    -12979.000     90.170

 O/F=    1.04981  %FUEL= 48.785100  R,EQ.RATIO= 3.800000  PHI,EQ.RATIO= 3.800000

                 INJECTOR  COMB END  THROAT     EXIT
 Pinj/P            1.0000   1.1155   1.8492   52.880
 P, BAR            101.33   90.832   54.793   1.9161
 T, K             1330.19  1316.25  1240.56   908.33
 RHO, KG/CU M    1.2449 1 1.1282 1 7.3520 0 3.8680-1
 H, KJ/KG        -2921.31 -2967.81 -3359.33 -5393.90
 U, KJ/KG        -3735.22 -3772.95 -4104.61 -5889.28
 G, KJ/KG        -21357.4 -21252.5 -20592.6 -18011.9
 S, KJ/(KG)(K)    13.8598  13.8915  13.8915  13.8915

 M, (1/n)          13.589   13.593   13.840   15.245
 MW, MOL WT        13.589   13.593   13.840   13.356
 (dLV/dLP)t      -1.12034 -1.12044 -1.12275 -1.10724
 (dLV/dLT)p        2.2714   2.2869   2.3984   2.5953
 Cp, KJ/(KG)(K)   11.3646  11.5538  12.7045  16.7845
 GAMMAs            1.1868   1.1855   1.1755   1.1256
 SON VEL,M/SEC      982.8    977.0    936.0    746.7
 MACH NUMBER        0.000    0.312    1.000    2.978

 PERFORMANCE PARAMETERS

 Ae/At                      2.0000   1.0000   8.0000
 CSTAR, M/SEC               1398.1   1398.1   1398.1
 CF                         0.2181   0.6694   1.5905
 Ivac, M/SEC                2945.0   1732.2   2446.5
 Isp, M/SEC                  305.0    936.0   2223.8

 MOLE FRACTIONS

 CH2             1.191-13 8.443-14 1.114-14 1.239-20
 CH3             6.132 -7 5.220 -7 2.102 -7 2.899-10
 CH2OH           9.351-11 7.299-11 1.957-11 2.363-15
 CH3O            2.862-12 2.159-12 4.747-13 1.714-17
 CH4             1.1970-1 1.1990-1 1.3121-1 1.0925-1
 CH3OH           7.6999-7 6.8324-7 4.0668-7 8.0132-9
 *CO             2.6148-1 2.6071-1 2.4971-1 9.1022-2
 *CO2            3.1887-2 3.2595-2 3.9847-2 8.1991-2
 COOH            4.482-10 3.660-10 1.273-10 9.040-14
 C2H2,acetylene  2.760 -7 2.335 -7 8.705 -8 3.131-11
 C2H2,vinylidene 1.065-13 7.567-14 1.019-14 5.462-21
 CH2CO,ketene    9.898 -7 8.576 -7 4.051 -7 7.584-10
 O(CH)2O         4.527-12 3.576-12 1.089-12 1.516-16
 HO(CO)2OH       8.980-15 7.141-15 2.752-15 2.369-18
 C2H3,vinyl      2.109-11 1.590-11 3.192-12 2.237-17
 CH3CO,acetyl    3.981-10 3.154-10 9.302-11 9.135-15
 C2H4            2.6115-5 2.3713-5 1.4769-5 1.4490-7
 C2H4O,ethylen-o 6.853-13 5.386-13 1.597-13 1.668-17
 CH3CHO,ethanal  2.929 -7 2.568 -7 1.438 -7 8.405-10
 CH3COOH         1.464 -8 1.289 -8 8.202 -9 1.345-10
 OHCH2COOH       3.728-13 2.940-13 1.084-13 6.755-17
 C2H5            3.273 -9 2.650 -9 8.903-10 1.764-13
 C2H6            4.7660-5 4.4524-5 3.6232-5 2.0646-6
 C2H5OH          3.343 -9 2.821 -9 1.398 -9 4.018-12
 CH3OCH3         5.830-12 4.693-12 1.770-12 8.872-16
 C2O             1.944-15 1.346-15 1.557-16 3.608-23
 C3H3,2-propynl  1.152-11 8.575-12 1.612-12 3.272-18
 C3H4,allene     1.118 -9 9.066-10 2.956-10 2.058-14
 C3H4,propyne    3.404 -9 2.779 -9 9.404-10 8.234-14
 C3H4,cyclo-     3.676-13 2.748-13 5.576-14 1.903-19
 C3H5,allyl      1.575-10 1.243-10 3.633-11 1.331-15
 C3H6,propylene  1.753 -7 1.515 -7 7.912 -8 1.159-10
 C3H6,cyclo-     2.165-10 1.811-10 7.829-11 3.526-14
 C3H6O,propylox  4.331-15 3.262-15 8.428-16 1.692-20
 C3H6O,acetone   1.364 -9 1.160 -9 6.083-10 1.063-12
 C3H6O,propanal  2.908-10 2.388-10 1.021-10 5.001-14
 C3H7,n-propyl   3.740-12 2.839-12 7.325-13 1.250-17
 C3H7,i-propyl   4.395-12 3.374-12 9.285-13 2.341-17
 C3H8            5.901 -8 5.182 -8 3.284 -8 1.768-10
 C3H8O,1propanol 3.876-12 3.079-12 1.200-12 3.420-16
 C3H8O,2propanol 5.314-12 4.275-12 1.795-12 8.377-16
 C3O2            3.036-11 2.431-11 7.287-12 3.665-16
 C4H2,butadiyne  5.943-14 4.243-14 5.992-15 8.358-22
 C4H6,butadiene  2.098-10 1.687-10 5.860-11 2.911-15
 C4H6,1butyne    4.502-12 3.452-12 9.062-13 7.296-18
 C4H6,2butyne    7.241-12 5.680-12 1.701-12 3.107-17
 C4H6,cyclo-     1.469-13 1.138-13 3.183-14 3.898-19
 C4H8,1-butene   2.031-10 1.650-10 6.722-11 9.378-15
 C4H8,cis2-buten 1.125-10 9.233-11 3.990-11 7.971-15
 C4H8,tr2-butene 1.269-10 1.042-10 4.517-11 9.314-15
 C4H8,isobutene  1.637-10 1.352-10 6.042-11 1.515-14
 C4H8,cyclo-     4.452-14 3.526-14 1.238-14 6.858-19
 C4H9,n-butyl    1.410-14 1.018-14 2.188-15 5.427-21
 C4H9,i-butyl    9.896-15 7.202-15 1.624-15 5.511-21
 C4H9,s-butyl    9.649-15 6.971-15 1.506-15 3.765-21
 C4H9,t-butyl    4.548-15 3.368-15 8.395-16 5.101-21
 C4H10,n-butane  7.323-11 6.038-11 2.966-11 1.470-14
 C4H10,isobutane 3.009-11 2.502-11 1.289-11 8.707-15
 C5H6,1,3cyclo-  2.365-12 1.913-12 6.923-13 1.898-17
 C5H8,cyclo-     3.235-13 2.605-13 1.016-13 4.744-18
 C5H10,1-pentene 2.017-13 1.542-13 4.913-14 6.529-19
 C5H10,cyclo-    1.533-14 1.242-14 5.546-15 6.568-19
 C5H12,n-pentane 7.739-14 5.992-14 2.283-14 1.060-18
 C5H12,i-pentane 7.892-14 6.133-14 2.391-14 1.347-18
 CH3C(CH3)2CH3   4.783-15 3.734-15 1.502-15 1.159-19
 C6H6            4.404-11 3.838-11 2.160-11 4.179-15
 C6H5OH,phenol   3.306-14 2.664-14 1.050-14 2.508-19
 C6H10,cyclo-    1.473-16 1.132-16 3.752-17 2.997-22
 C6H12,1-hexene  1.987-16 1.429-16 3.561-17 4.497-23
 C7H7,benzyl     3.252-16 2.421-16 5.796-17 2.246-23
 C7H8            4.370-13 3.628-13 1.721-13 5.125-18
 C7H8O,cresol-mx 2.663-16 2.047-16 6.838-17 2.633-22
 C8H8,styrene    8.451-16 6.505-16 2.006-16 1.695-22
 C8H10,ethylbenz 5.536-16 4.311-16 1.576-16 4.173-22
 *H              1.216 -7 1.037 -7 3.786 -8 6.736-11
 HCO             1.087 -8 8.891 -9 2.825 -9 9.520-13
 HCCO            5.230-13 3.837-13 6.537-14 1.816-19
 *H2             4.7714-1 4.7751-1 4.6557-1 4.2129-1
 HCHO,formaldehy 5.9534-6 5.3528-6 3.1088-6 4.9933-8
 HCOOH           1.7596-6 1.5937-6 1.0680-6 5.3479-8
 H2O             1.0971-1 1.0920-1 1.1362-1 1.7254-1
 H2O2            2.559-16 1.800-16 2.732-17 2.388-22
 (HCOOH)2        3.795-16 2.953-16 1.114-16 9.366-20
 *O              1.001-16 6.859-17 7.351-18 5.940-24
 *OH             5.024-10 4.017-10 1.110-10 3.677-14
 C(gr)           0.0000 0 0.0000 0 0.0000 0 1.2390-1

  * THERMODYNAMIC PROPERTIES FITTED TO 20000.K

 NOTE. WEIGHT FRACTION OF FUEL IN TOTAL FUELS AND OF OXIDANT IN TOTAL OXIDANTS

              THEORETICAL ROCKET PERFORMANCE ASSUMING EQUILIBRIUM

            COMPOSITION DURING EXPANSION FROM FINITE AREA COMBUSTOR

 Pin =  1469.6 PSIA
 Ac/At =  2.0000      Pinj/Pinf =  1.053104
 CASE = test___________

             REACTANT                    WT FRACTION      ENERGY      TEMP
                                          (SEE NOTE)     KJ/KG-MOL      K  
 FUEL        CH4(L)                       1.0000000    -89233.000    111.643
 OXIDANT     O2(L)                        1.0000000    -12979.000     90.170

 O/F=    1.02289  %FUEL= 49.434272  R,EQ.RATIO= 3.900000  PHI,EQ.RATIO= 3.900000

                 INJECTOR  COMB END  THROAT     EXIT
 Pinj/P            1.0000   1.1153   1.8476   52.723
 P, BAR            101.33   90.847   54.840   1.9218
 T, K             1319.81  1306.14  1232.03   903.54
 RHO, KG/CU M    1.2616 1 1.1433 1 7.4481 0 3.9105-1
 H, KJ/KG        -2954.78 -3000.61 -3386.67 -5402.83
 U, KJ/KG        -3757.94 -3795.22 -4122.97 -5894.28
 G, KJ/KG        -21213.0 -21110.9 -20469.5 -17930.8
 S, KJ/(KG)(K)    13.8340  13.8655  13.8655  13.8655

 M, (1/n)          13.663   13.667   13.913   15.286
 MW, MOL WT        13.663   13.667   13.913   13.288
 (dLV/dLP)t      -1.12187 -1.12195 -1.12376 -1.10646
 (dLV/dLT)p        2.2985   2.3140   2.4204   2.5755
 Cp, KJ/(KG)(K)   11.5927  11.7834  12.9025  16.5198
 GAMMAs            1.1841   1.1827   1.1731   1.1261
 SON VEL,M/SEC      975.2    969.4    929.4    743.9
 MACH NUMBER        0.000    0.312    1.000    2.974

 PERFORMANCE PARAMETERS

 Ae/At                      2.0000   1.0000   8.0000
 CSTAR, M/SEC               1389.9   1389.9   1389.9
 CF                         0.2178   0.6687   1.5920
 Ivac, M/SEC                2927.5   1721.6   2434.8
 Isp, M/SEC                  302.7    929.4   2212.7

 MOLE FRACTIONS

 CH2             9.483-14 6.732-14 8.962-15 9.308-21
 CH3             5.775 -7 4.918 -7 1.982 -7 2.587-10
 CH2OH           8.432-11 6.586-11 1.771-11 2.051-15
 CH3O            2.516-12 1.899-12 4.195-13 1.453-17
 CH4             1.3137-1 1.3156-1 1.4296-1 1.1419-1
 CH3OH           7.8859-7 6.9976-7 4.1495-7 7.9327-9
 *CO             2.5689-1 2.5611-1 2.4505-1 8.4317-2
 *CO2            3.2585-2 3.3298-2 4.0587-2 8.0217-2
 COOH            4.003-10 3.270-10 1.142-10 7.791-14
 C2H2,acetylene  2.621 -7 2.219 -7 8.268 -8 2.634-11
 C2H2,vinylidene 8.883-14 6.319-14 8.564-15 4.039-21
 CH2CO,ketene    9.769 -7 8.466 -7 3.989 -7 6.727-10
 O(CH)2O         4.260-12 3.366-12 1.025-12 1.304-16
 HO(CO)2OH       8.853-15 7.040-15 2.707-15 2.199-18
 C2H3,vinyl      1.898-11 1.433-11 2.882-12 1.796-17
 CH3CO,acetyl    3.796-10 3.008-10 8.868-11 7.886-15
 C2H4            2.7865-5 2.5304-5 1.5656-5 1.3849-7
 C2H4O,ethylen-o 6.707-13 5.273-13 1.560-13 1.488-17
 CH3CHO,ethanal  3.109 -7 2.726 -7 1.517 -7 8.113-10
 CH3COOH         1.592 -8 1.402 -8 8.856 -9 1.353-10
 OHCH2COOH       3.814-13 3.008-13 1.105-13 6.504-17
 C2H5            3.311 -9 2.682 -9 8.975-10 1.609-13
 C2H6            5.5378-5 5.1722-5 4.1619-5 2.1742-6
 C2H5OH          3.677 -9 3.102 -9 1.525 -9 4.071-12
 CH3OCH3         6.193-12 4.985-12 1.868-12 8.681-16
 C2O             1.523-15 1.056-15 1.234-16 2.517-23
 C3H3,2-propynl  1.074-11 8.004-12 1.504-12 2.560-18
 C3H4,allene     1.147 -9 9.308-10 3.018-10 1.781-14
 C3H4,propyne    3.510 -9 2.867 -9 9.645-10 7.159-14
 C3H4,cyclo-     3.551-13 2.657-13 5.378-14 1.552-19
 C3H5,allyl      1.635-10 1.291-10 3.751-11 1.174-15
 C3H6,propylene  2.011 -7 1.738 -7 8.971 -8 1.134-10
 C3H6,cyclo-     2.424-10 2.028-10 8.678-11 3.370-14
 C3H6O,propylox  4.579-15 3.450-15 8.850-16 1.552-20
 C3H6O,acetone   1.579 -9 1.342 -9 6.955-10 1.064-12
 C3H6O,propanal  3.278-10 2.692-10 1.139-10 4.885-14
 C3H7,n-propyl   4.022-12 3.055-12 7.816-13 1.155-17
 C3H7,i-propyl   4.766-12 3.660-12 9.985-13 2.179-17
 C3H8            7.301 -8 6.410 -8 4.000 -8 1.889-10
 C3H8O,1propanol 4.546-12 3.610-12 1.390-12 3.516-16
 C3H8O,2propanol 6.291-12 5.060-12 2.097-12 8.702-16
 C3O2            2.830-11 2.267-11 6.796-12 2.898-16
 C4H2,butadiyne  5.440-14 3.888-14 5.490-15 6.004-22
 C4H6,butadiene  2.385-10 1.919-10 6.589-11 2.661-15
 C4H6,1butyne    4.940-12 3.790-12 9.851-13 6.431-18
 C4H6,2butyne    8.082-12 6.342-12 1.879-12 2.782-17
 C4H6,cyclo-     1.625-13 1.260-13 3.487-14 3.465-19
 C4H8,1-butene   2.481-10 2.016-10 8.084-11 9.306-15
 C4H8,cis2-buten 1.384-10 1.136-10 4.833-11 7.964-15
 C4H8,tr2-butene 1.562-10 1.283-10 5.473-11 9.314-15
 C4H8,isobutene  2.024-10 1.671-10 7.348-11 1.521-14
 C4H8,cyclo-     5.336-14 4.227-14 1.463-14 6.683-19
 C4H9,n-butyl    1.629-14 1.176-14 2.496-15 5.130-21
 C4H9,i-butyl    1.150-14 8.372-15 1.864-15 5.243-21
 C4H9,s-butyl    1.115-14 8.060-15 1.718-15 3.558-21
 C4H9,t-butyl    5.354-15 3.966-15 9.746-16 4.905-21
 C4H10,n-butane  9.642-11 7.948-11 3.828-11 1.592-14
 C4H10,isobutane 3.986-11 3.313-11 1.673-11 9.490-15
 C5H6,1,3cyclo-  2.824-12 2.285-12 8.146-13 1.712-17
 C5H8,cyclo-     4.105-13 3.305-13 1.265-13 4.602-18
 C5H10,1-pentene 2.625-13 2.007-13 6.267-14 6.572-19
 C5H10,cyclo-    2.083-14 1.687-14 7.370-15 6.906-19
 C5H12,n-pentane 1.084-13 8.394-14 3.123-14 1.164-18
 C5H12,i-pentane 1.109-13 8.615-14 3.280-14 1.486-18
 CH3C(CH3)2CH3   6.742-15 5.264-15 2.070-15 1.288-19
 C6H6            5.813-11 5.064-11 2.790-11 3.912-15
 C6H5OH,phenol   4.204-14 3.388-14 1.310-14 2.299-19
 C6H10,cyclo-    2.013-16 1.546-16 5.010-17 2.985-22
 C6H12,1-hexene  2.756-16 1.982-16 4.818-17 4.591-23
 C6H14,n-hexane  1.072-16 7.802-17 2.257-17 7.571-23
 C7H7,benzyl     4.123-16 3.071-16 7.208-17 1.916-23
 C7H8            6.203-13 5.148-13 2.380-13 4.913-18
 C7H8O,cresol-mx 3.645-16 2.801-16 9.137-17 2.474-22
 C8H8,styrene    1.186-15 9.130-16 2.743-16 1.512-22
 C8H10,ethylbenz 8.356-16 6.506-16 2.308-16 4.054-22
 *H              1.028 -7 8.776 -8 3.230 -8 5.693-11
 HCO             9.519 -9 7.789 -9 2.487 -9 7.923-13
 HCCO            4.418-13 3.244-13 5.558-14 1.373-19
 *H2             4.6932-1 4.6972-1 4.5787-1 4.1533-1
 HCHO,formaldehy 5.7749-6 5.1932-6 3.0141-6 4.6271-8
 HCOOH           1.7524-6 1.5873-6 1.0620-6 5.1763-8
 H2O             1.0975-1 1.0922-1 1.1348-1 1.7521-1
 H2O2            2.020-16 1.422-16 2.182-17 1.949-22
 (HCOOH)2        3.926-16 3.055-16 1.147-16 9.255-20
 *OH             4.137-10 3.310-10 9.231-11 3.064-14
 C(gr)           0.0000 0 0.0000 0 0.0000 0 1.3074-1

  * THERMODYNAMIC PROPERTIES FITTED TO 20000.K

 NOTE. WEIGHT FRACTION OF FUEL IN TOTAL FUELS AND OF OXIDANT IN TOTAL OXIDANTS