

         NASA-GLENN CHEMICAL EQUILIBRIUM PROGRAM CEA2, FEBRUARY 5, 2004
                   BY  BONNIE MCBRIDE AND SANFORD GORDON
      REFS: NASA RP-1311, PART I, 1994 AND NASA RP-1311, PART II, 1996

 *******************************************************************************

  
 ### CEA analysis performed on Sat 10-Dec-2022 16:22:46
  
 # Problem Type: "Rocket" (Finite Area Combustor)
  
 prob case=test___________7581 ro equilibrium    fac
  
 !Contraction Ratio:
 ac/at=2
  
 # Pressure (1 value):
 p,bar= 101.325
 # Supersonic Area Ratio (1 value):
 supar= 3
  
 # Equivalence based on Fuel/Oxid. wt ratio (Eq 9.19*) (10 values):
 phi= 3.1, 3.2, 3.3, 3.4, 3.5, 3.6, 3.7, 3.8, 3.9, 4
  
 # You selected the following fuels and oxidizers:
 reac
 fuel CH6N2(L),MMH     mole=100.0000
 oxid N2O4             mole=100.0000  t,k= 300.000
  
 # You selected these options for output:
 # short version of output
 output short
 # Proportions of any products will be expressed as Mole Fractions.
 # Heat will be expressed as siunits
 output siunits
 # Trace variable:
 output trace=1e-16
  
 # Input prepared by this script:/var/www/sites/cearun.grc.nasa.gov/cgi-bin/CEARU
 N/prepareInputFile.cgi
  
 ### IMPORTANT:  The following line is the end of your CEA input file!
 end

              THEORETICAL ROCKET PERFORMANCE ASSUMING EQUILIBRIUM

            COMPOSITION DURING EXPANSION FROM FINITE AREA COMBUSTOR

 Pin =  1469.6 PSIA
 Ac/At =  2.0000      Pinj/Pinf =  1.056586
 CASE = test___________

             REACTANT                       MOLES         ENERGY      TEMP
                                                         KJ/KG-MOL      K
 FUEL        CH6N2(L),MMH               100.0000000     54200.000    298.150
 OXIDANT     N2O4                       100.0000000     11257.595    300.000

 O/F=    0.80529  %FUEL= 55.392697  R,EQ.RATIO= 3.100000  PHI,EQ.RATIO= 3.100000

                 INJECTOR  COMB END  THROAT     EXIT
 Pinj/P            1.0000   1.1233   1.9312   18.279
 P, BAR            101.33   90.202   52.467   5.5433
 T, K             2059.65  2031.89  1800.18  1121.60
 RHO, KG/CU M    9.1113e0 8.2217e0 5.3983e0 9.3167-1
 H, KJ/KG          706.23   638.59   78.595 -1634.97
 U, KJ/KG         -405.85  -458.53  -893.33 -2229.96
 G, KJ/KG        -26036.6 -25804.2 -23348.8 -16231.3
 S, KJ/(KG)(K)    12.9842  13.0139  13.0139  13.0139

 M, (1/n)          15.399   15.399   15.400   15.673
 (dLV/dLP)t      -1.00061 -1.00056 -1.00066 -1.02828
 (dLV/dLT)p        1.0035   1.0032   1.0040   1.3508
 Cp, KJ/(KG)(K)    2.4553   2.4488   2.4040   4.6219
 GAMMAs            1.2834   1.2843   1.2916   1.2212
 SON VEL,M/SEC     1194.7   1187.0   1120.4    852.4
 MACH NUMBER        0.000    0.310    1.000    2.539

 PERFORMANCE PARAMETERS

 Ae/At                      2.0000   1.0000   3.0000
 CSTAR, M/SEC               1585.6   1585.6   1585.6
 CF                         0.2320   0.7066   1.3647
 Ivac, M/SEC                3350.6   1987.9   2438.8
 Isp, M/SEC                  367.8   1120.4   2163.9

 MOLE FRACTIONS

 *C              7.468-15 4.691-15 5.538-17 2.948-27
 *CH             2.183-13 1.429-13 3.324-15 8.635-24
 CH2             2.115-10 1.547-10 1.377-11 5.867-17
 CH3             3.8236-7 3.2137-7 1.4361-7 4.4346-9
 CH2OH           9.214-10 7.214-10 1.638-10 1.505-13
 CH3O            9.615-11 7.283-11 1.216-11 2.550-15
 CH4             5.4636-5 5.1687-5 9.5979-5 8.9761-3
 CH3OH           1.7000-8 1.4591-8 1.0647-8 6.9596-9
 *CN             4.780-10 3.554-10 2.784-11 4.470-17
 *CO             1.7644-1 1.7629-1 1.7459-1 1.5033-1
 *CO2            8.5876-3 8.7439-3 1.0440-2 2.9138-2
 COOH            3.496 -8 2.914 -8 6.850 -9 4.681-12
 C2H             2.133-13 1.418-13 6.762-15 1.415-21
 C2H2,acetylene  2.600 -8 2.139 -8 1.043 -8 6.825-10
 C2H2,vinylidene 3.273-12 2.336-12 2.905-13 1.217-17
 CH2CO,ketene    3.6648-8 3.0797-8 1.8363-8 3.7887-9
 O(CH)2O         3.391-12 2.634-12 7.451-13 3.515-15
 HO(CO)2OH       4.367-15 3.406-15 1.010-15 8.190-18
 C2H3,vinyl      1.437-11 1.062-11 2.463-12 4.070-15
 CH3CN           1.9560-9 1.6359-9 1.6506-9 1.0300-8
 CH3CO,acetyl    4.893-11 3.757-11 1.266-11 1.872-13
 C2H4            5.8671-9 4.9864-9 5.8586-9 7.7917-8
 C2H4O,ethylen-o 1.773-14 1.334-14 4.909-15 1.660-16
 CH3CHO,ethanal  1.893-10 1.563-10 1.393-10 4.817-10
 CH3COOH         7.758-12 6.404-12 5.759-12 2.706-11
 OHCH2COOH       7.354-15 5.525-15 2.038-15 1.014-16
 C2H5            5.419-12 4.131-12 2.286-12 7.688-13
 C2H6            1.073-10 9.085-11 1.820-10 8.189 -8
 C2H5OH          2.030-13 1.578-13 1.409-13 9.791-13
 CH3OCH3         1.700-15 1.271-15 7.813-16 7.479-16
 OCCN            6.056-12 4.363-12 4.493-13 6.047-18
 C2N2            4.149-11 3.172-11 7.683-12 1.370-14
 C2O             5.102-12 3.652-12 2.665-13 4.164-19
 C3H3,2-propynl  2.346-13 1.667-13 4.702-14 3.993-16
 C3H4,allene     2.117-13 1.592-13 1.029-13 1.034-13
 C3H4,propyne    5.159-13 3.901-13 2.662-13 3.521-13
 C3H4,cyclo-     1.065-15 7.478-16 2.525-16 8.135-18
 C3H5,allyl      1.237-14 8.955-15 5.364-15 5.332-15
 C3H6,propylene  1.026-13 7.912-14 1.155-13 1.725-11
 C3H6,cyclo-     3.901-16 2.922-16 3.242-16 1.208-14
 C3H6O,acetone   1.208-15 9.192-16 1.188-15 1.031-13
 C3H6O,propanal  8.524-16 6.294-16 6.097-16 1.191-14
 C3H8            5.333-16 4.051-16 9.090-16 2.681-12
 C3O2            1.077-11 8.455-12 2.646-12 1.906-14
 C4H2,butadiyne  6.023-16 4.069-16 9.451-17 3.746-19
 C4H6,butadiene  2.803-17 1.969-17 2.121-17 1.324-15
 C4H8,1-butene   4.709-19 3.260-19 5.349-19 5.308-16
 C4H8,cis2-buten 1.826-19 1.276-19 2.284-19 3.507-16
 C4H8,tr2-butene 2.053-19 1.434-19 2.564-19 3.998-16
 C4H8,isobutene  2.219-19 1.557-19 2.905-19 5.659-16
 *H              1.6115-4 1.4252-4 3.3324-5 1.1808-8
 HCN             5.0703-5 4.5316-5 2.7449-5 3.3206-6
 HCO             8.895 -7 7.433 -7 1.779 -7 1.137-10
 HCCO            3.147-11 2.334-11 3.173-12 1.823-16
 HNC             2.8506-6 2.4243-6 9.1338-7 8.7920-9
 HNCO            3.3893-6 3.0251-6 1.8109-6 2.2393-7
 HNO             2.785-10 2.097-10 1.408-11 1.001-17
 HNO2            3.660-13 2.592-13 9.670-15 3.326-22
 HO2             1.296-12 9.101-13 2.356-14 7.617-23
 *H2             4.4979-1 4.4999-1 4.5172-1 4.5167-1
 HCHO,formaldehy 3.3119-6 2.9525-6 1.7468-6 1.9463-7
 HCOOH           7.3552-7 6.5711-7 4.0025-7 6.7839-8
 H2O             1.0499-1 1.0482-1 1.0317-1 9.5340-2
 H2O2            2.482-11 1.853-11 1.142-12 5.099-19
 *N              1.053-10 7.608-11 2.580-12 3.238-20
 NCO             5.868-10 4.527-10 5.075-11 6.536-16
 *NH             3.339 -9 2.511 -9 1.657-10 9.067-17
 NH2             3.706 -7 3.021 -7 5.693 -8 1.103-11
 NH3             2.8632-4 2.6659-4 2.3848-4 2.4543-4
 NH2OH           4.504-11 3.406-11 4.230-12 1.581-16
 *NO             1.165 -7 9.371 -8 8.852 -9 2.592-14
 NO2             4.182-14 2.872-14 6.009-16 6.743-25
 *N2             2.5963-1 2.5963-1 2.5968-1 2.6430-1
 N2O             3.919-11 2.981-11 2.199-12 2.664-18
 NCN             1.980-14 1.311-14 4.527-16 1.488-23
 N2H2            5.077-11 3.812-11 4.426-12 1.122-16
 N2H4            1.662-12 1.226-12 2.108-13 7.421-17
 N3              5.551-15 3.678-15 9.665-17 6.292-25
 N3H             2.582-13 1.812-13 1.095-14 8.064-21
 *O              1.073 -9 8.027-10 2.858-11 3.596-19
 *OH             4.704 -6 3.961 -6 5.759 -7 1.586-11
 *O2             1.071-10 8.026-11 2.887-12 3.962-20

  * THERMODYNAMIC PROPERTIES FITTED TO 20000.K

              THEORETICAL ROCKET PERFORMANCE ASSUMING EQUILIBRIUM

            COMPOSITION DURING EXPANSION FROM FINITE AREA COMBUSTOR

 Pin =  1469.6 PSIA
 Ac/At =  2.0000      Pinj/Pinf =  1.056685
 CASE = test___________

             REACTANT                       MOLES         ENERGY      TEMP
                                                         KJ/KG-MOL      K
 FUEL        CH6N2(L),MMH               100.0000000     54200.000    298.150
 OXIDANT     N2O4                       100.0000000     11257.595    300.000

 O/F=    0.78013  %FUEL= 56.175775  R,EQ.RATIO= 3.200000  PHI,EQ.RATIO= 3.200000

                 INJECTOR  COMB END  THROAT     EXIT
 Pinj/P            1.0000   1.1235   1.9333   18.055
 P, BAR            101.33   90.183   52.410   5.6121
 T, K             2007.12  1979.75  1751.89  1110.96
 RHO, KG/CU M    9.2422e0 8.3394e0 5.4776e0 9.4737-1
 H, KJ/KG          714.49   647.69   95.152 -1586.04
 U, KJ/KG         -381.84  -433.73  -861.65 -2178.42
 G, KJ/KG        -25407.8 -25178.0 -22758.1 -16078.4
 S, KJ/(KG)(K)    13.0148  13.0449  13.0449  13.0450

 M, (1/n)          15.222   15.221   15.224   15.593
 (dLV/dLP)t      -1.00077 -1.00072 -1.00098 -1.03576
 (dLV/dLT)p        1.0043   1.0040   1.0064   1.4482
 Cp, KJ/(KG)(K)    2.4630   2.4567   2.4204   5.3230
 GAMMAs            1.2868   1.2877   1.2946   1.2111
 SON VEL,M/SEC     1187.8   1180.1   1113.0    847.0
 MACH NUMBER        0.000    0.310    1.000    2.532

 PERFORMANCE PARAMETERS

 Ae/At                      2.0000   1.0000   3.0000
 CSTAR, M/SEC               1572.9   1572.9   1572.9
 CF                         0.2324   0.7076   1.3637
 Ivac, M/SEC                3324.1   1972.6   2421.2
 Isp, M/SEC                  365.5   1113.0   2145.0

 MOLE FRACTIONS

 *C              3.418-15 2.110-15 2.114-17 1.699-27
 *CH             1.221-13 7.885-14 1.612-15 5.701-24
 CH2             1.653-10 1.200-10 9.952-12 4.853-17
 CH3             4.4048-7 3.7019-7 1.6535-7 4.7752-9
 CH2OH           8.365-10 6.531-10 1.446-10 1.409-13
 CH3O            8.195-11 6.184-11 9.986-12 2.304-15
 CH4             8.9185-5 8.4969-5 1.6851-4 1.2321-2
 CH3OH           2.0790-8 1.7899-8 1.3452-8 7.9969-9
 *CN             3.367-10 2.480-10 1.785-11 3.462-17
 *CO             1.7736-1 1.7721-1 1.7549-1 1.4941-1
 *CO2            8.0812-3 8.2361-3 9.9297-3 2.8397-2
 COOH            2.533 -8 2.102 -8 4.742 -9 3.835-12
 C2H             1.713-13 1.129-13 4.962-15 1.177-21
 C2H2,acetylene  3.549 -8 2.925 -8 1.448 -8 8.133-10
 C2H2,vinylidene 3.401-12 2.417-12 2.894-13 1.202-17
 CH2CO,ketene    4.7019-8 3.9608-8 2.4168-8 4.4182-9
 O(CH)2O         3.379-12 2.623-12 7.404-13 3.545-15
 HO(CO)2OH       3.573-15 2.786-15 8.293-16 7.576-18
 C2H3,vinyl      1.804-11 1.333-11 3.078-12 4.584-15
 CH3CN           3.4662-9 2.9183-9 3.1353-9 1.4824-8
 CH3CO,acetyl    5.967-11 4.588-11 1.566-11 2.122-13
 C2H4            1.0870-8 9.3054-9 1.1698-8 1.1463-7
 C2H4O,ethylen-o 2.347-14 1.770-14 6.695-15 1.996-16
 CH3CHO,ethanal  2.994-10 2.487-10 2.351-10 6.512-10
 CH3COOH         1.108-11 9.204-12 8.815-12 3.513-11
 OHCH2COOH       7.918-15 5.968-15 2.273-15 1.117-16
 C2H5            9.207-12 7.056-12 4.102-12 1.070-12
 C2H6            2.517-10 2.155-10 4.812-10 1.422 -7
 C2H5OH          3.652-13 2.863-13 2.769-13 1.454-12
 CH3OCH3         2.838-15 2.136-15 1.402-15 1.056-15
 OCCN            5.053-12 3.620-12 3.537-13 5.298-18
 C2N2            4.787-11 3.656-11 8.772-12 1.482-14
 C2O             3.775-12 2.681-12 1.815-13 3.336-19
 C3H3,2-propynl  3.805-13 2.710-13 7.841-14 5.287-16
 C3H4,allene     4.323-13 3.273-13 2.262-13 1.606-13
 C3H4,propyne    1.065-12 8.113-13 5.930-13 5.506-13
 C3H4,cyclo-     1.908-15 1.346-15 4.745-16 1.158-17
 C3H5,allyl      2.652-14 1.935-14 1.250-14 8.609-15
 C3H6,propylene  2.806-13 2.191-13 3.599-13 3.283-11
 C3H6,cyclo-     1.009-15 7.645-16 9.461-16 2.221-14
 C3H6O,acetone   2.908-15 2.240-15 3.247-15 1.840-13
 C3H6O,propanal  1.937-15 1.446-15 1.554-15 2.049-14
 C3H8            1.807-15 1.396-15 3.656-15 5.943-12
 C3H8O,2propanol 2.145-18 1.535-18 1.955-18 1.021-16
 C3O2            1.196-11 9.393-12 2.947-12 2.029-14
 C4H2,butadiyne  1.094-15 7.417-16 1.774-16 5.282-19
 C4H6,butadiene  8.937-17 6.368-17 7.836-17 2.784-15
 C4H8,1-butene   1.862-18 1.312-18 2.538-18 1.290-15
 C4H8,cis2-buten 7.349-19 5.227-19 1.106-18 8.613-16
 C4H8,tr2-butene 8.261-19 5.875-19 1.242-18 9.827-16
 C4H8,isobutene  9.006-19 6.434-19 1.421-18 1.399-15
 C4H10,n-butane  1.345-20 9.359-21 2.849-20 2.451-16
 C4H10,isobutane 4.285-21 3.001-21 9.750-21 1.174-16
 C6H6            9.235-22 6.730-22 3.185-21 1.840-16
 *H              1.1514-4 1.0115-4 2.2222-5 9.3632-9
 HCN             5.7387-5 5.1302-5 3.1143-5 3.5555-6
 HCO             7.172 -7 5.966 -7 1.368 -7 9.776-11
 HCCO            2.814-11 2.078-11 2.707-12 1.662-16
 HNC             2.9337-6 2.4908-6 9.2369-7 8.8272-9
 HNCO            3.4541-6 3.0834-6 1.8504-6 2.2802-7
 HNO             1.470-10 1.096-10 6.678-12 6.662-18
 HNO2            1.551-13 1.084-13 3.591-15 1.949-22
 HO2             4.852-13 3.355-13 7.521-15 4.055-23
 *H2             4.5958-1 4.5979-1 4.6141-1 4.5447-1
 HCHO,formaldehy 3.4141-6 3.0440-6 1.8037-6 1.9820-7
 HCOOH           6.8737-7 6.1439-7 3.7667-7 6.6562-8
 H2O             9.6466-2 9.6298-2 9.4684-2 9.0876-2
 H2O2            1.180-11 8.712-12 4.849-13 3.196-19
 *N              5.038-11 3.588-11 1.064-12 1.972-20
 NCO             4.005-10 3.067-10 3.209-11 5.080-16
 *NH             1.949 -9 1.450 -9 8.648-11 6.304-17
 NH2             2.849 -7 2.308 -7 4.128 -8 9.238-12
 NH3             3.2081-4 2.9918-4 2.7177-4 2.6552-4
 NH2OH           3.060-11 2.300-11 2.707-12 1.257-16
 *NO             6.181 -8 4.921 -8 4.221 -9 1.721-14
 NO2             1.480-14 9.996-15 1.799-16 3.486-25
 *N2             2.5791-1 2.5792-1 2.5798-1 2.6426-1
 N2O             2.081-11 1.566-11 1.052-12 1.793-18
 NCN             1.244-14 8.144-15 2.536-16 1.083-23
 N2H2            3.717-11 2.774-11 3.046-12 9.265-17
 N2H4            1.500-12 1.103-12 1.852-13 7.059-17
 N3              2.793-15 1.826-15 4.242-17 4.039-25
 N3H             1.638-13 1.139-13 6.338-15 6.061-21
 *O              4.447-10 3.277-10 1.013-11 2.010-19
 *OH             2.761 -6 2.304 -6 3.089 -7 1.118-11
 *O2             4.018-11 2.964-11 9.256-13 2.108-20

  * THERMODYNAMIC PROPERTIES FITTED TO 20000.K

              THEORETICAL ROCKET PERFORMANCE ASSUMING EQUILIBRIUM

            COMPOSITION DURING EXPANSION FROM FINITE AREA COMBUSTOR

 Pin =  1469.6 PSIA
 Ac/At =  2.0000      Pinj/Pinf =  1.056775
 CASE = test___________

             REACTANT                       MOLES         ENERGY      TEMP
                                                         KJ/KG-MOL      K
 FUEL        CH6N2(L),MMH               100.0000000     54200.000    298.150
 OXIDANT     N2O4                       100.0000000     11257.595    300.000

 O/F=    0.75649  %FUEL= 56.931834  R,EQ.RATIO= 3.300000  PHI,EQ.RATIO= 3.300000

                 INJECTOR  COMB END  THROAT     EXIT
 Pinj/P            1.0000   1.1237   1.9350   17.818
 P, BAR            101.33   90.167   52.363   5.6867
 T, K             1956.99  1930.01  1706.20  1102.83
 RHO, KG/CU M    9.3753e0 8.4592e0 5.5585e0 9.6297-1
 H, KJ/KG          722.46   656.50   111.48 -1539.41
 U, KJ/KG         -358.31  -409.40  -830.55 -2129.94
 G, KJ/KG        -24801.2 -24574.1 -22193.4 -15956.5
 S, KJ/(KG)(K)    13.0423  13.0728  13.0728  13.0728

 M, (1/n)          15.055   15.055   15.059   15.527
 (dLV/dLP)t      -1.00103 -1.00098 -1.00152 -1.04248
 (dLV/dLT)p        1.0058   1.0056   1.0107   1.5367
 Cp, KJ/(KG)(K)    2.4740   2.4678   2.4457   5.9710
 GAMMAs            1.2900   1.2908   1.2972   1.2038
 SON VEL,M/SEC     1180.7   1173.0   1105.4    843.1
 MACH NUMBER        0.000    0.310    1.000    2.523

 PERFORMANCE PARAMETERS

 Ae/At                      2.0000   1.0000   3.0000
 CSTAR, M/SEC               1560.4   1560.4   1560.4
 CF                         0.2327   0.7084   1.3630
 Ivac, M/SEC                3298.1   1957.6   2404.6
 Isp, M/SEC                  363.2   1105.4   2126.9

 MOLE FRACTIONS

 *C              1.559-15 9.452-16 8.082-18 1.109-27
 *CH             6.807-14 4.334-14 7.816-16 4.143-24
 CH2             1.287-10 9.274-11 7.183-12 4.209-17
 CH3             5.0619-7 4.2542-7 1.8981-7 5.0909-9
 CH2OH           7.569-10 5.892-10 1.274-10 1.341-13
 CH3O            6.963-11 5.235-11 8.187-12 2.134-15
 CH4             1.4543-4 1.3955-4 2.9471-4 1.5887-2
 CH3OH           2.5360-8 2.1901-8 1.6936-8 8.9396-9
 *CN             2.367-10 1.728-10 1.145-11 2.850-17
 *CO             1.7822-1 1.7807-1 1.7631-1 1.4834-1
 *CO2            7.6041-3 7.7573-3 9.4457-3 2.7644-2
 COOH            1.831 -8 1.513 -8 3.282 -9 3.267-12
 C2H             1.372-13 8.962-14 3.640-15 1.030-21
 C2H2,acetylene  4.841 -8 3.997 -8 2.005 -8 9.423-10
 C2H2,vinylidene 3.525-12 2.495-12 2.877-13 1.203-17
 CH2CO,ketene    6.0267-8 5.0895-8 3.1741-8 5.0106-9
 O(CH)2O         3.361-12 2.609-12 7.348-13 3.576-15
 HO(CO)2OH       2.920-15 2.277-15 6.812-16 7.081-18
 C2H3,vinyl      2.259-11 1.668-11 3.834-12 5.091-15
 CH3CN           6.1415-9 5.2063-9 5.9367-9 1.9959-8
 CH3CO,acetyl    7.264-11 5.593-11 1.933-11 2.358-13
 C2H4            2.0115-8 1.7348-8 2.3253-8 1.5688-7
 C2H4O,ethylen-o 3.100-14 2.345-14 9.102-15 2.326-16
 CH3CHO,ethanal  4.728-10 3.952-10 3.952-10 8.308-10
 CH3COOH         1.580-11 1.321-11 1.345-11 4.325-11
 OHCH2COOH       8.511-15 6.435-15 2.532-15 1.205-16
 C2H5            1.561-11 1.203-11 7.326-12 1.404-12
 C2H6            5.893-10 5.105-10 1.264 -9 2.220 -7
 C2H5OH          6.555-13 5.183-13 5.409-13 2.002-12
 CH3OCH3         4.724-15 3.581-15 2.504-15 1.398-15
 OCCN            4.212-12 3.000-12 2.787-13 4.807-18
 C2N2            5.527-11 4.217-11 1.002-11 1.594-14
 C2O             2.788-12 1.964-12 1.237-13 2.818-19
 C3H3,1-propynl  1.009-16 6.563-17 7.918-18 5.635-22
 C3H3,2-propynl  6.163-13 4.403-13 1.303-13 6.697-16
 C3H4,allene     8.819-13 6.727-13 4.951-13 2.307-13
 C3H4,propyne    2.197-12 1.686-12 1.315-12 7.949-13
 C3H4,cyclo-     3.415-15 2.421-15 8.882-16 1.554-17
 C3H5,allyl      5.679-14 4.177-14 2.897-14 1.276-14
 C3H6,propylene  7.664-13 6.062-13 1.114-12 5.536-11
 C3H6,cyclo-     2.607-15 1.999-15 2.744-15 3.647-14
 C3H6O,acetone   6.993-15 5.454-15 8.822-15 2.938-13
 C3H6O,propanal  4.393-15 3.317-15 3.941-15 3.179-14
 C3H7,n-propyl   1.604-16 1.118-16 8.196-17 6.298-17
 C3H7,i-propyl   1.327-16 9.348-17 7.583-17 9.158-17
 C3H8            6.116-15 4.803-15 1.459-14 1.132-11
 C3H8O,2propanol 5.691-18 4.130-18 5.961-18 1.736-16
 C3O2            1.329-11 1.044-11 3.282-12 2.140-14
 C4H2,butadiyne  1.989-15 1.352-15 3.322-16 7.056-19
 C4H6,butadiene  2.851-16 2.061-16 2.877-16 5.101-15
 C4H6,2butyne    1.988-17 1.412-17 1.639-17 1.064-16
 C4H8,1-butene   7.358-18 5.278-18 1.194-17 2.654-15
 C4H8,cis2-buten 2.955-18 2.141-18 5.313-18 1.786-15
 C4H8,tr2-butene 3.321-18 2.405-18 5.966-18 2.039-15
 C4H8,isobutene  3.651-18 2.657-18 6.897-18 2.916-15
 C4H10,n-butane  6.567-20 4.669-20 1.722-19 5.689-16
 C4H10,isobutane 2.118-20 1.517-20 5.986-20 2.744-16
 C6H6            5.881-21 4.389-21 2.558-20 4.785-16
 *H              8.2092-5 7.1639-5 1.4821-5 7.8021-9
 HCN             6.4926-5 5.8059-5 3.5301-5 3.7712-6
 HCO             5.770 -7 4.778 -7 1.051 -7 8.685-11
 HCCO            2.512-11 1.847-11 2.309-12 1.555-16
 HNC             3.0165-6 2.5569-6 9.3343-7 8.9059-9
 HNCO            3.5178-6 3.1410-6 1.8897-6 2.3154-7
 HNO             7.743-11 5.708-11 3.171-12 4.833-18
 HNO2            6.548-14 4.517-14 1.336-15 1.276-22
 HO2             1.808-13 1.231-13 2.405-15 2.457-23
 *H2             4.6877-1 4.6897-1 4.7044-1 4.5634-1
 HCHO,formaldehy 3.5133-6 3.1329-6 1.8591-6 2.0114-7
 HCOOH           6.4149-7 5.7368-7 3.5421-7 6.5332-8
 H2O             8.8448-2 8.8278-2 8.6749-2 8.7093-2
 H2O2            5.584-12 4.077-12 2.059-13 2.202-19
 *N              2.404-11 1.688-11 4.399-13 1.339-20
 NCO             2.730-10 2.075-10 2.032-11 4.175-16
 *NH             1.134 -9 8.346-10 4.516-11 4.753-17
 NH2             2.184 -7 1.759 -7 2.992 -8 8.063-12
 NH3             3.5877-4 3.3512-4 3.0894-4 2.8307-4
 NH2OH           2.072-11 1.549-11 1.731-12 1.050-16
 *NO             3.273 -8 2.578 -8 2.016 -9 1.245-14
 NO2             5.216-15 3.466-15 5.400-17 2.066-25
 *N2             2.5630-1 2.5630-1 2.5640-1 2.6441-1
 N2O             1.103-11 8.217-12 5.044-13 1.313-18
 NCN             7.802-15 5.050-15 1.424-16 8.514-24
 N2H2            2.717-11 2.015-11 2.097-12 8.011-17
 N2H4            1.349-12 9.898-13 1.625-13 6.835-17
 N3              1.403-15 9.049-16 1.868-17 2.870-25
 N3H             1.037-13 7.149-14 3.675-15 4.876-21
 *O              1.837-10 1.333-10 3.596-12 1.269-19
 *OH             1.615 -6 1.336 -6 1.657 -7 8.463-12
 *O2             1.501-11 1.090-11 2.975-13 1.275-20

  * THERMODYNAMIC PROPERTIES FITTED TO 20000.K

              THEORETICAL ROCKET PERFORMANCE ASSUMING EQUILIBRIUM

            COMPOSITION DURING EXPANSION FROM FINITE AREA COMBUSTOR

 Pin =  1469.6 PSIA
 Ac/At =  2.0000      Pinj/Pinf =  1.056847
 CASE = test___________

             REACTANT                       MOLES         ENERGY      TEMP
                                                         KJ/KG-MOL      K
 FUEL        CH6N2(L),MMH               100.0000000     54200.000    298.150
 OXIDANT     N2O4                       100.0000000     11257.595    300.000

 O/F=    0.73424  %FUEL= 57.662248  R,EQ.RATIO= 3.400000  PHI,EQ.RATIO= 3.400000

                 INJECTOR  COMB END  THROAT     EXIT
 Pinj/P            1.0000   1.1239   1.9361   17.580
 P, BAR            101.33   90.154   52.333   5.7636
 T, K             1909.21  1882.62  1663.25  1096.38
 RHO, KG/CU M    9.5102e0 8.5808e0 5.6410e0 9.7830-1
 H, KJ/KG          730.15   665.06   127.67 -1495.44
 U, KJ/KG         -335.28  -385.58  -800.06 -2084.58
 G, KJ/KG        -24217.2 -23993.0 -21657.2 -15855.5
 S, KJ/(KG)(K)    13.0669  13.0977  13.0977  13.0977

 M, (1/n)          14.899   14.899   14.906   15.473
 (dLV/dLP)t      -1.00144 -1.00137 -1.00241 -1.04835
 (dLV/dLT)p        1.0085   1.0082   1.0180   1.6147
 Cp, KJ/(KG)(K)    2.4898   2.4839   2.4865   6.5520
 GAMMAs            1.2928   1.2937   1.2988   1.1983
 SON VEL,M/SEC     1173.6   1165.9   1097.7    840.2
 MACH NUMBER        0.000    0.309    1.000    2.511

 PERFORMANCE PARAMETERS

 Ae/At                      2.0000   1.0000   3.0000
 CSTAR, M/SEC               1548.3   1548.3   1548.3
 CF                         0.2330   0.7090   1.3626
 Ivac, M/SEC                3272.7   1942.9   2389.0
 Isp, M/SEC                  360.8   1097.7   2109.8

 MOLE FRACTIONS

 *C              7.098-16 4.229-16 3.120-18 7.882-28
 *CH             3.787-14 2.378-14 3.816-16 3.213-24
 CH2             1.001-10 7.154-11 5.195-12 3.766-17
 CH3             5.8053-7 4.8794-7 2.1721-7 5.3823-9
 CH2OH           6.829-10 5.302-10 1.120-10 1.290-13
 CH3O            5.903-11 4.422-11 6.714-12 2.008-15
 CH4             2.3684-4 2.2892-4 5.1168-4 1.9591-2
 CH3OH           3.0851-8 2.6729-8 2.1217-8 9.7964-9
 *CN             1.663-10 1.203-10 7.385-12 2.445-17
 *CO             1.7900-1 1.7886-1 1.7702-1 1.4716-1
 *CO2            7.1520-3 7.3030-3 8.9841-3 2.6903-2
 COOH            1.322 -8 1.087 -8 2.277 -9 2.860-12
 C2H             1.098-13 7.112-14 2.679-15 9.310-22
 C2H2,acetylene  6.6000-8 5.4597-8 2.7668-8 1.0682-9
 C2H2,vinylidene 3.648-12 2.572-12 2.858-13 1.212-17
 CH2CO,ketene    7.7181-8 6.5349-8 4.1541-8 5.5647-9
 O(CH)2O         3.339-12 2.591-12 7.287-13 3.602-15
 HO(CO)2OH       2.381-15 1.857-15 5.599-16 6.665-18
 C2H3,vinyl      2.824-11 2.085-11 4.761-12 5.583-15
 CH3CN           1.0879-8 9.2873-9 1.1167-8 2.5602-8
 CH3CO,acetyl    8.830-11 6.810-11 2.378-11 2.580-13
 C2H4            3.7178-8 3.2306-8 4.5844-8 2.0376-7
 C2H4O,ethylen-o 4.087-14 3.101-14 1.232-14 2.646-16
 CH3CHO,ethanal  7.454-10 6.270-10 6.599-10 1.016 -9
 CH3COOH         2.250-11 1.894-11 2.042-11 5.125-11
 OHCH2COOH       9.128-15 6.925-15 2.813-15 1.279-16
 C2H5            2.640-11 2.045-11 1.298-11 1.766-12
 C2H6            1.3768-9 1.2070-9 3.2810-9 3.2118-7
 C2H5OH          1.173-12 9.357-13 1.047-12 2.609-12
 CH3OCH3         7.841-15 5.987-15 4.433-15 1.765-15
 OCCN            3.511-12 2.487-12 2.202-13 4.460-18
 C2N2            6.392-11 4.873-11 1.146-11 1.705-14
 C2O             2.059-12 1.439-12 8.467-14 2.464-19
 C3H3,1-propynl  1.381-16 8.974-17 1.071-17 6.419-22
 C3H3,2-propynl  9.978-13 7.150-13 2.154-13 8.196-16
 C3H4,allene     1.798-12 1.382-12 1.075-12 3.127-13
 C3H4,propyne    4.528-12 3.503-12 2.891-12 1.082-12
 C3H4,cyclo-     6.108-15 4.352-15 1.651-15 1.994-17
 C3H5,allyl      1.215-13 9.009-14 6.655-14 1.775-14
 C3H6,propylene  2.091-12 1.675-12 3.404-12 8.556-11
 C3H6,cyclo-     6.727-15 5.221-15 7.864-15 5.518-14
 C3H6O,acetone   1.678-14 1.326-14 2.368-14 4.331-13
 C3H6O,propanal  9.948-15 7.597-15 9.881-15 4.579-14
 C3H7,n-propyl   3.908-16 2.753-16 2.187-16 9.328-17
 C3H7,i-propyl   3.294-16 2.347-16 2.069-16 1.366-16
 C3H8            2.065-14 1.650-14 5.726-14 1.932-11
 C3H8O,1propanol 1.554-17 1.132-17 1.649-17 1.516-16
 C3H8O,2propanol 1.506-17 1.108-17 1.792-17 2.696-16
 C3O2            1.478-11 1.161-11 3.655-12 2.238-14
 C4H2,butadiyne  3.616-15 2.468-15 6.189-16 9.038-19
 C4H6,butadiene  9.101-16 6.678-16 1.043-15 8.462-15
 C4H6,2butyne    6.143-17 4.421-17 5.687-17 1.734-16
 C4H8,1-butene   2.903-17 2.120-17 5.522-17 4.840-15
 C4H8,cis2-buten 1.187-17 8.755-18 2.508-17 3.280-15
 C4H8,tr2-butene 1.333-17 9.835-18 2.816-17 3.747-15
 C4H8,isobutene  1.478-17 1.096-17 3.289-17 5.376-15
 C4H10,n-butane  3.198-19 2.325-19 1.020-18 1.146-15
 C4H10,isobutane 1.045-19 7.650-20 3.600-19 5.558-16
 C6H6            3.751-20 2.869-20 2.014-19 1.060-15
 *H              5.8459-5 5.0674-5 9.9184-6 6.7262-9
 HCN             7.3449-5 6.5703-5 3.9967-5 3.9693-6
 HCO             4.635 -7 3.820 -7 8.087 -8 7.887-11
 HCCO            2.241-11 1.640-11 1.972-12 1.477-16
 HNC             3.1006-6 2.6240-6 9.4319-7 9.0042-9
 HNCO            3.5806-6 3.1978-6 1.9286-6 2.3454-7
 HNO             4.071-11 2.970-11 1.516-12 3.721-18
 HNO2            2.757-14 1.877-14 5.015-16 9.010-23
 HO2             6.718-14 4.501-14 7.761-16 1.629-23
 *H2             4.7736-1 4.7757-1 4.7875-1 4.5751-1
 HCHO,formaldehy 3.6095-6 3.2192-6 1.9127-6 2.0349-7
 HCOOH           5.9773-7 5.3485-7 3.3285-7 6.4141-8
 H2O             8.0913-2 8.0742-2 7.9364-2 8.3825-2
 H2O2            2.633-12 1.901-12 8.798-14 1.620-19
 *N              1.146-11 7.929-12 1.835-13 9.800-21
 NCO             1.859-10 1.403-10 1.292-11 3.565-16
 *NH             6.588-10 4.796-10 2.373-11 3.787-17
 NH2             1.671 -7 1.338 -7 2.172 -8 7.235-12
 NH3             4.0046-4 3.7469-4 3.5010-4 2.9863-4
 NH2OH           1.400-11 1.040-11 1.111-12 9.073-17
 *NO             1.730 -8 1.349 -8 9.698-10 9.547-15
 NO2             1.835-15 1.199-15 1.640-17 1.347-25
 *N2             2.5479-1 2.5480-1 2.5496-1 2.6470-1
 N2O             5.841-12 4.307-12 2.437-13 1.019-18
 NCN             4.892-15 3.132-15 8.049-17 7.049-24
 N2H2            1.984-11 1.463-11 1.450-12 7.146-17
 N2H4            1.211-12 8.861-13 1.424-13 6.692-17
 N3              7.042-16 4.483-16 8.300-18 2.186-25
 N3H             6.564-14 4.483-14 2.143-15 4.108-21
 *O              7.573-11 5.411-11 1.289-12 8.712-20
 *OH             9.425 -7 7.727 -7 8.928 -8 6.731-12
 *O2             5.593-12 4.000-12 9.656-14 8.427-21

  * THERMODYNAMIC PROPERTIES FITTED TO 20000.K

              THEORETICAL ROCKET PERFORMANCE ASSUMING EQUILIBRIUM

            COMPOSITION DURING EXPANSION FROM FINITE AREA COMBUSTOR

 Pin =  1469.6 PSIA
 Ac/At =  2.0000      Pinj/Pinf =  1.056895
 CASE = test___________

             REACTANT                       MOLES         ENERGY      TEMP
                                                         KJ/KG-MOL      K
 FUEL        CH6N2(L),MMH               100.0000000     54200.000    298.150
 OXIDANT     N2O4                       100.0000000     11257.595    300.000

 O/F=    0.71326  %FUEL= 58.368300  R,EQ.RATIO= 3.500000  PHI,EQ.RATIO= 3.500000

                 INJECTOR  COMB END  THROAT     EXIT
 Pinj/P            1.0000   1.1240   1.9363   17.349
 P, BAR            101.33   90.145   52.331   5.8404
 T, K             1863.79  1837.59  1623.34  1091.08
 RHO, KG/CU M    9.6465e0 8.7040e0 5.7251e0 9.9325-1
 H, KJ/KG          737.60   673.38   143.85 -1454.30
 U, KJ/KG         -312.79  -362.30  -770.20 -2042.31
 G, KJ/KG        -23657.0 -23435.6 -21154.2 -15769.1
 S, KJ/(KG)(K)    13.0887  13.1199  13.1199  13.1199

 M, (1/n)          14.753   14.752   14.766   15.428
 (dLV/dLP)t      -1.00206 -1.00199 -1.00384 -1.05341
 (dLV/dLT)p        1.0129   1.0127   1.0304   1.6826
 Cp, KJ/(KG)(K)    2.5137   2.5081   2.5534   7.0648
 GAMMAs            1.2953   1.2961   1.2992   1.1941
 SON VEL,M/SEC     1166.4   1158.6   1089.7    837.9
 MACH NUMBER        0.000    0.309    1.000    2.499

 PERFORMANCE PARAMETERS

 Ae/At                      2.0000   1.0000   3.0000
 CSTAR, M/SEC               1536.7   1536.7   1536.7
 CF                         0.2332   0.7091   1.3625
 Ivac, M/SEC                3248.2   1928.5   2374.6
 Isp, M/SEC                  358.4   1089.7   2093.7

 MOLE FRACTIONS

 *C              3.239-16 1.897-16 1.232-18 5.935-28
 *CH             2.109-14 1.306-14 1.895-16 2.603-24
 CH2             7.773-11 5.517-11 3.784-12 3.438-17
 CH3             6.6456-7 5.5866-7 2.4760-7 5.6491-9
 CH2OH           6.147-10 4.760-10 9.868-11 1.249-13
 CH3O            4.996-11 3.730-11 5.524-12 1.909-15
 CH4             3.8471-4 3.7456-4 8.7652-4 2.3384-2
 CH3OH           3.7410-8 3.2517-8 2.6387-8 1.0577-8
 *CN             1.170-10 8.391-11 4.815-12 2.155-17
 *CO             1.7971-1 1.7957-1 1.7761-1 1.4588-1
 *CO2            6.7216-3 6.8698-3 8.5429-3 2.6191-2
 COOH            9.532 -9 7.803 -9 1.591 -9 2.551-12
 C2H             8.799-14 5.652-14 1.989-15 8.584-22
 C2H2,acetylene  8.9939-8 7.4549-8 3.7941-8 1.1898-9
 C2H2,vinylidene 3.774-12 2.652-12 2.842-13 1.224-17
 CH2CO,ketene    9.8719-8 8.3812-8 5.4034-8 6.0804-9
 O(CH)2O         3.313-12 2.570-12 7.224-13 3.621-15
 HO(CO)2OH       1.938-15 1.512-15 4.611-16 6.306-18
 C2H3,vinyl      3.527-11 2.604-11 5.886-12 6.054-15
 CH3CN           1.9248-8 1.6548-8 2.0731-8 3.1665-8
 CH3CO,acetyl    1.072-10 8.280-11 2.912-11 2.785-13
 C2H4            6.8548-8 6.0023-8 8.9007-8 2.5447-7
 C2H4O,ethylen-o 5.377-14 4.092-14 1.655-14 2.953-16
 CH3CHO,ethanal  1.172 -9 9.922-10 1.088 -9 1.205 -9
 CH3COOH         3.195-11 2.708-11 3.065-11 5.905-11
 OHCH2COOH       9.763-15 7.432-15 3.111-15 1.342-16
 C2H5            4.452-11 3.469-11 2.270-11 2.148-12
 C2H6            3.2040-9 2.8429-9 8.3280-9 4.3937-7
 C2H5OH          2.091-12 1.683-12 1.993-12 3.265-12
 CH3OCH3         1.296-14 9.971-15 7.736-15 2.152-15
 OCCN            2.929-12 2.064-12 1.752-13 4.198-18
 C2N2            7.406-11 5.642-11 1.310-11 1.813-14
 C2O             1.522-12 1.055-12 5.851-14 2.205-19
 C3H3,1-propynl  1.887-16 1.227-16 1.442-17 7.199-22
 C3H3,2-propynl  1.614-12 1.160-12 3.526-13 9.757-16
 C3H4,allene     3.659-12 2.834-12 2.296-12 4.055-13
 C3H4,propyne    9.318-12 7.265-12 6.253-12 1.408-12
 C3H4,cyclo-     1.091-14 7.811-15 3.031-15 2.472-17
 C3H5,allyl      2.592-13 1.939-13 1.502-13 2.355-14
 C3H6,propylene  5.683-12 4.615-12 1.015-11 1.239-10
 C3H6,cyclo-     1.730-14 1.360-14 2.203-14 7.850-14
 C3H6O,acetone   4.013-14 3.211-14 6.214-14 6.018-13
 C3H6O,propanal  2.244-14 1.734-14 2.426-14 6.242-14
 C3H7,n-propyl   9.481-16 6.751-16 5.707-16 1.305-16
 C3H7,i-propyl   8.148-16 5.869-16 5.518-16 1.923-16
 C3H8            6.939-14 5.638-14 2.179-13 3.044-11
 C3H8O,1propanol 4.014-17 2.964-17 4.726-17 2.187-16
 C3H8O,2propanol 3.962-17 2.959-17 5.251-17 3.917-16
 C3O2            1.644-11 1.292-11 4.066-12 2.324-14
 C4H2,butadiyne  6.579-15 4.507-15 1.141-15 1.119-18
 C4H6,butadiene  2.899-15 2.159-15 3.681-15 1.302-14
 C4H6,1butyne    2.192-16 1.565-16 1.767-16 1.027-16
 C4H6,2butyne    1.893-16 1.381-16 1.922-16 2.629-16
 C4H8,1-butene   1.140-16 8.482-17 2.469-16 8.073-15
 C4H8,cis2-buten 4.743-17 3.566-17 1.144-16 5.501-15
 C4H8,tr2-butene 5.327-17 4.005-17 1.285-16 6.286-15
 C4H8,isobutene  5.958-17 4.502-17 1.515-16 9.046-15
 C4H10,n-butane  1.548-18 1.151-18 5.809-18 2.078-15
 C4H10,isobutane 5.122-19 3.837-19 2.080-18 1.013-15
 C6H6            2.387-19 1.871-19 1.521-18 2.084-15
 *H              4.1637-5 3.5853-5 6.6950-6 5.9378-9
 HCN             8.3088-5 7.4357-5 4.5156-5 4.1507-6
 HCO             3.721 -7 3.053 -7 6.255 -8 7.270-11
 HCCO            1.998-11 1.456-11 1.691-12 1.417-16
 HNC             3.1874-6 2.6934-6 9.5353-7 9.1061-9
 HNCO            3.6421-6 3.2538-6 1.9668-6 2.3704-7
 HNO             2.141-11 1.545-11 7.360-13 2.988-18
 HNO2            1.161-14 7.802-15 1.921-16 6.720-23
 HO2             2.495-14 1.645-14 2.563-16 1.151-23
 *H2             4.8536-1 4.8557-1 4.8630-1 4.5816-1
 HCHO,formaldehy 3.7022-6 3.3026-6 1.9640-6 2.0532-7
 HCOOH           5.5600-7 4.9781-7 3.1268-7 6.2983-8
 H2O             7.3853-2 7.3681-2 7.2556-2 8.0965-2
 H2O2            1.240-12 8.849-13 3.820-14 1.248-19
 *N              5.473-12 3.732-12 7.810-14 7.556-21
 NCO             1.268-10 9.494-11 8.311-12 3.123-16
 *NH             3.830-10 2.758-10 1.264-11 3.135-17
 NH2             1.277 -7 1.018 -7 1.587 -8 6.616-12
 NH3             4.4606-4 4.1805-4 3.9505-4 3.1261-4
 NH2OH           9.443-12 6.974-12 7.183-13 8.030-17
 *NO             9.154 -9 7.062 -9 4.739-10 7.638-15
 NO2             6.457-16 4.152-16 5.107-18 9.386-26
 *N2             2.5339-1 2.5340-1 2.5367-1 2.6510-1
 N2O             3.097-12 2.260-12 1.198-13 8.248-19
 NCN             3.075-15 1.947-15 4.620-17 6.042-24
 N2H2            1.450-11 1.062-11 1.011-12 6.512-17
 N2H4            1.085-12 7.920-13 1.251-13 6.598-17
 N3              3.544-16 2.226-16 3.763-18 1.747-25
 N3H             4.158-14 2.815-14 1.267-15 3.572-21
 *O              3.125-11 2.199-11 4.727-13 6.347-20
 *OH             5.497 -7 4.467 -7 4.870 -8 5.545-12
 *O2             2.085-12 1.468-12 3.209-14 5.936-21

  * THERMODYNAMIC PROPERTIES FITTED TO 20000.K

              THEORETICAL ROCKET PERFORMANCE ASSUMING EQUILIBRIUM

            COMPOSITION DURING EXPANSION FROM FINITE AREA COMBUSTOR

 Pin =  1469.6 PSIA
 Ac/At =  2.0000      Pinj/Pinf =  1.056906
 CASE = test___________

             REACTANT                       MOLES         ENERGY      TEMP
                                                         KJ/KG-MOL      K
 FUEL        CH6N2(L),MMH               100.0000000     54200.000    298.150
 OXIDANT     N2O4                       100.0000000     11257.595    300.000

 O/F=    0.69345  %FUEL= 59.051189  R,EQ.RATIO= 3.600000  PHI,EQ.RATIO= 3.600000

                 INJECTOR  COMB END  THROAT     EXIT
 Pinj/P            1.0000   1.1240   1.9349   17.133
 P, BAR            101.33   90.144   52.367   5.9139
 T, K             1820.83  1795.03  1586.90  1086.54
 RHO, KG/CU M    9.7833e0 8.8282e0 5.8108e0 1.0075 0
 H, KJ/KG          744.79   681.47   160.12 -1416.20
 U, KJ/KG         -290.90  -339.62  -741.08 -2003.19
 G, KJ/KG        -23122.5 -22904.2 -20690.9 -15692.6
 S, KJ/(KG)(K)    13.1079  13.1394  13.1394  13.1394

 M, (1/n)          14.617   14.617   14.641   15.390
 (dLV/dLP)t      -1.00303 -1.00295 -1.00607 -1.05776
 (dLV/dLT)p        1.0201   1.0199   1.0501   1.7412
 Cp, KJ/(KG)(K)    2.5505   2.5457   2.6606   7.5145
 GAMMAs            1.2971   1.2979   1.2975   1.1908
 SON VEL,M/SEC     1159.0   1151.2   1081.4    836.0
 MACH NUMBER        0.000    0.309    1.000    2.487

 PERFORMANCE PARAMETERS

 Ae/At                      2.0000   1.0000   3.0000
 CSTAR, M/SEC               1525.7   1525.7   1525.7
 CF                         0.2333   0.7088   1.3626
 Ivac, M/SEC                3225.1   1914.8   2361.3
 Isp, M/SEC                  355.9   1081.4   2078.9

 MOLE FRACTIONS

 *C              1.489-16 8.574-17 5.072-19 4.640-28
 *CH             1.181-14 7.217-15 9.703-17 2.168-24
 CH2             6.048-11 4.263-11 2.795-12 3.176-17
 CH3             7.5916-7 6.3837-7 2.8068-7 5.8873-9
 CH2OH           5.525-10 4.269-10 8.725-11 1.213-13
 CH3O            4.227-11 3.145-11 4.578-12 1.825-15
 CH4             6.2180-4 6.0976-4 1.4675-3 2.7238-2
 CH3OH           4.5170-8 3.9392-8 3.2455-8 1.1287-8
 *CN             8.266-11 5.877-11 3.203-12 1.932-17
 *CO             1.8032-1 1.8018-1 1.7801-1 1.4450-1
 *CO2            6.3111-3 6.4560-3 8.1228-3 2.5518-2
 COOH            6.877 -9 5.605 -9 1.125 -9 2.304-12
 C2H             7.075-14 4.508-14 1.500-15 7.997-22
 C2H2,acetylene  1.2237-7 1.0164-7 5.1450-8 1.3053-9
 C2H2,vinylidene 3.905-12 2.735-12 2.833-13 1.234-17
 CH2CO,ketene    1.2597-7 1.0725-7 6.9542-8 6.5546-9
 O(CH)2O         3.283-12 2.547-12 7.158-13 3.630-15
 HO(CO)2OH       1.575-15 1.229-15 3.816-16 5.986-18
 C2H3,vinyl      4.397-11 3.247-11 7.225-12 6.491-15
 CH3CN           3.3920-8 2.9371-8 3.7586-8 3.8065-8
 CH3CO,acetyl    1.298-10 1.004-10 3.538-11 2.971-13
 C2H4            1.2573-7 1.1094-7 1.6827-7 3.0827-7
 C2H4O,ethylen-o 7.050-14 5.383-14 2.197-14 3.243-16
 CH3CHO,ethanal  1.8327-9 1.5621-9 1.7567-9 1.3948-9
 CH3COOH         4.513-11 3.853-11 4.518-11 6.661-11
 OHCH2COOH       1.040-14 7.948-15 3.419-15 1.395-16
 C2H5            7.471-11 5.855-11 3.881-11 2.544-12
 C2H6            7.3953-9 6.6410-9 2.0339-8 5.7603-7
 C2H5OH          3.700-12 3.004-12 3.691-12 3.960-12
 CH3OCH3         2.129-14 1.650-14 1.318-14 2.552-15
 OCCN            2.450-12 1.718-12 1.411-13 3.979-18
 C2N2            8.595-11 6.545-11 1.496-11 1.912-14
 C2O             1.128-12 7.767-13 4.113-14 1.999-19
 C3H3,1-propynl  2.577-16 1.675-16 1.924-17 7.946-22
 C3H3,2-propynl  2.604-12 1.879-12 5.675-13 1.134-15
 C3H4,allene     7.412-12 5.787-12 4.765-12 5.075-13
 C3H4,propyne    1.908-11 1.500-11 1.313-11 1.767-12
 C3H4,cyclo-     1.940-14 1.397-14 5.443-15 2.974-17
 C3H5,allyl      5.501-13 4.152-13 3.286-13 3.006-14
 C3H6,propylene  1.532-11 1.261-11 2.897-11 1.707-10
 C3H6,cyclo-     4.418-14 3.514-14 5.924-14 1.065-13
 C3H6O,acetone   9.515-14 7.710-14 1.567-13 7.989-13
 C3H6O,propanal  5.023-14 3.927-14 5.742-14 8.151-14
 C3H7,n-propyl   2.282-15 1.643-15 1.434-15 1.745-16
 C3H7,i-propyl   1.999-15 1.456-15 1.415-15 2.583-16
 C3H8            2.306-13 1.906-13 7.852-13 4.510-11
 C3H8O,1propanol 1.026-16 7.688-17 1.296-16 3.000-16
 C3H8O,2propanol 1.032-16 7.822-17 1.471-16 5.406-16
 C3O2            1.829-11 1.439-11 4.509-12 2.394-14
 C4H2,butadiyne  1.195-14 8.221-15 2.061-15 1.346-18
 C4H6,butadiene  9.166-15 6.930-15 1.238-14 1.891-14
 C4H6,1butyne    6.457-16 4.669-16 5.469-16 1.456-16
 C4H6,2butyne    5.784-16 4.280-16 6.201-16 3.769-16
 C4H8,1-butene   4.428-16 3.356-16 1.041-15 1.257-14
 C4H8,cis2-buten 1.875-16 1.436-16 4.914-16 8.604-15
 C4H8,tr2-butene 2.105-16 1.612-16 5.520-16 9.836-15
 C4H8,isobutene  2.374-16 1.828-16 6.571-16 1.419-14
 C4H10,n-butane  7.395-18 5.621-18 3.083-17 3.478-15
 C4H10,isobutane 2.477-18 1.898-18 1.120-17 1.702-15
 C6H6            1.502-18 1.207-18 1.063-17 3.738-15
 *H              2.9724-5 2.5430-5 4.5929-6 5.3265-9
 HCN             9.3960-5 8.4128-5 5.0824-5 4.3140-6
 HCO             2.989 -7 2.442 -7 4.886 -8 6.764-11
 HCCO            1.784-11 1.295-11 1.461-12 1.365-16
 HNC             3.2778-6 2.7660-6 9.6490-7 9.1950-9
 HNCO            3.7019-6 3.3085-6 2.0037-6 2.3900-7
 HNO             1.130-11 8.077-12 3.681-13 2.469-18
 HNO2            4.909-15 3.258-15 7.641-17 5.205-23
 HO2             9.307-15 6.047-15 8.840-17 8.498-24
 *H2             4.9274-1 4.9295-1 4.9296-1 4.5838-1
 HCHO,formaldehy 3.7905-6 3.3824-6 2.0119-6 2.0658-7
 HCOOH           5.1627-7 4.6256-7 2.9384-7 6.1845-8
 H2O             6.7269-2 6.7097-2 6.6374-2 7.8439-2
 H2O2            5.849-13 4.131-13 1.711-14 9.944-20
 *N              2.630-12 1.769-12 3.450-14 6.033-21
 NCO             8.672-11 6.448-11 5.448-12 2.783-16
 *NH             2.235-10 1.593-10 6.921-12 2.663-17
 NH2             9.773 -8 7.745 -8 1.175 -8 6.124-12
 NH3             4.9554-4 4.6521-4 4.4301-4 3.2528-4
 NH2OH           6.375-12 4.682-12 4.725-13 7.220-17
 *NO             4.863 -9 3.713 -9 2.384-10 6.290-15
 NO2             2.287-16 1.447-16 1.667-18 6.856-26
 *N2             2.5211-1 2.5212-1 2.5256-1 2.6559-1
 N2O             1.649-12 1.192-12 6.062-14 6.865-19
 NCN             1.943-15 1.218-15 2.723-17 5.293-24
 N2H2            1.062-11 7.737-12 7.164-13 6.015-17
 N2H4            9.716-13 7.074-13 1.106-13 6.525-17
 N3              1.795-16 1.113-16 1.768-18 1.441-25
 N3H             2.645-14 1.776-14 7.671-16 3.170-21
 *O              1.298-11 8.997-12 1.806-13 4.818-20
 *OH             3.214 -7 2.589 -7 2.719 -8 4.681-12
 *O2             7.812-13 5.420-13 1.113-14 4.372-21

  * THERMODYNAMIC PROPERTIES FITTED TO 20000.K

              THEORETICAL ROCKET PERFORMANCE ASSUMING EQUILIBRIUM

            COMPOSITION DURING EXPANSION FROM FINITE AREA COMBUSTOR

 Pin =  1469.6 PSIA
 Ac/At =  2.0000      Pinj/Pinf =  1.056866
 CASE = test___________

             REACTANT                       MOLES         ENERGY      TEMP
                                                         KJ/KG-MOL      K
 FUEL        CH6N2(L),MMH               100.0000000     54200.000    298.150
 OXIDANT     N2O4                       100.0000000     11257.595    300.000

 O/F=    0.67470  %FUEL= 59.712037  R,EQ.RATIO= 3.700000  PHI,EQ.RATIO= 3.700000

                 INJECTOR  COMB END  THROAT     EXIT
 Pinj/P            1.0000   1.1239   1.9318   16.939
 P, BAR            101.33   90.152   52.450   5.9819
 T, K             1780.52  1755.14  1554.42  1082.50
 RHO, KG/CU M    9.9195e0 8.9527e0 5.8972e0 1.0208 0
 H, KJ/KG          751.76   689.36   176.52 -1381.24
 U, KJ/KG         -269.71  -317.62  -712.89 -1967.21
 G, KJ/KG        -22617.2 -22402.2 -20274.2 -15623.2
 S, KJ/(KG)(K)    13.1248  13.1565  13.1565  13.1565

 M, (1/n)          14.493   14.492   14.531   15.360
 (dLV/dLP)t      -1.00450 -1.00441 -1.00930 -1.06147
 (dLV/dLT)p        1.0315   1.0315   1.0795   1.7918
 Cp, KJ/(KG)(K)    2.6075   2.6043   2.8222   7.9081
 GAMMAs            1.2980   1.2987   1.2936   1.1881
 SON VEL,M/SEC     1151.5   1143.6   1072.6    834.4
 MACH NUMBER        0.000    0.309    1.000    2.475

 PERFORMANCE PARAMETERS

 Ae/At                      2.0000   1.0000   3.0000
 CSTAR, M/SEC               1515.7   1515.7   1515.7
 CF                         0.2331   0.7077   1.3627
 Ivac, M/SEC                3203.7   1901.8   2349.1
 Isp, M/SEC                  353.3   1072.6   2065.4

 MOLE FRACTIONS

 *CH             6.681-15 4.035-15 5.208-17 1.837-24
 CH2             4.727-11 3.310-11 2.110-12 2.952-17
 CH3             8.6460-7 7.2735-7 3.1564-7 6.0935-9
 CH2OH           4.964-10 3.827-10 7.768-11 1.178-13
 CH3O            3.580-11 2.656-11 3.839-12 1.748-15
 CH4             9.9571-4 9.8322-4 2.3732-3 3.1136-2
 CH3OH           5.4207-8 4.7429-8 3.9295-8 1.1930-8
 *CN             5.883-11 4.150-11 2.195-12 1.750-17
 *CO             1.8080-1 1.8067-1 1.7817-1 1.4304-1
 *CO2            5.9204-3 6.0615-3 7.7268-3 2.4891-2
 COOH            4.977 -9 4.041 -9 8.129-10 2.100-12
 C2H             5.722-14 3.620-14 1.157-15 7.478-22
 C2H2,acetylene  1.6583-7 1.3804-7 6.8528-8 1.4127-9
 C2H2,vinylidene 4.044-12 2.823-12 2.832-13 1.239-17
 CH2CO,ketene    1.6001-7 1.3662-7 8.8038-8 6.9841-9
 O(CH)2O         3.248-12 2.520-12 7.091-13 3.624-15
 HO(CO)2OH       1.278-15 9.981-16 3.184-16 5.693-18
 C2H3,vinyl      5.464-11 4.037-11 8.768-12 6.880-15
 CH3CN           5.9253-8 5.1667-8 6.5655-8 4.4715-8
 CH3CO,acetyl    1.566-10 1.214-10 4.245-11 3.136-13
 C2H4            2.2822-7 2.0288-7 3.0530-7 3.6442-7
 C2H4O,ethylen-o 9.189-14 7.041-14 2.863-14 3.512-16
 CH3CHO,ethanal  2.8402-9 2.4366-9 2.7461-9 1.5829-9
 CH3COOH         6.321-11 5.433-11 6.480-11 7.388-11
 OHCH2COOH       1.103-14 8.459-15 3.724-15 1.439-16
 C2H5            1.242-10 9.789-11 6.412-11 2.946-12
 C2H6            1.6806-8 1.5268-8 4.6835-8 7.3048-7
 C2H5OH          6.468-12 5.296-12 6.556-12 4.685-12
 CH3OCH3         3.458-14 2.699-14 2.166-14 2.958-15
 OCCN            2.058-12 1.436-12 1.155-13 3.782-18
 C2N2            9.983-11 7.601-11 1.702-11 2.001-14
 C2O             8.421-13 5.757-13 2.966-14 1.825-19
 C3H3,1-propynl  3.506-16 2.280-16 2.529-17 8.632-22
 C3H3,2-propynl  4.176-12 3.023-12 8.882-13 1.290-15
 C3H4,allene     1.485-11 1.169-11 9.452-12 6.167-13
 C3H4,propyne    3.864-11 3.061-11 2.634-11 2.153-12
 C3H4,cyclo-     3.423-14 2.478-14 9.435-15 3.490-17
 C3H5,allyl      1.154-12 8.783-13 6.846-13 3.717-14
 C3H6,propylene  4.062-11 3.386-11 7.730-11 2.258-10
 C3H6,cyclo-     1.110-13 8.941-14 1.496-13 1.390-13
 C3H6O,acetone   2.220-13 1.821-13 3.719-13 1.023-12
 C3H6O,propanal  1.108-13 8.758-14 1.284-13 1.028-13
 C3H7,n-propyl   5.409-15 3.937-15 3.398-15 2.247-16
 C3H7,i-propyl   4.826-15 3.555-15 3.419-15 3.343-16
 C3H8            7.499-13 6.304-13 2.603-12 6.368-11
 C3H8O,1propanol 2.576-16 1.957-16 3.325-16 3.954-16
 C3H8O,2propanol 2.639-16 2.029-16 3.851-16 7.166-16
 C3O2            2.033-11 1.600-11 4.972-12 2.448-14
 C4H2,butadiyne  2.157-14 1.490-14 3.601-15 1.576-18
 C4H6,butadiene  2.847-14 2.185-14 3.856-14 2.620-14
 C4H6,1butyne    1.870-15 1.370-15 1.577-15 1.975-16
 C4H6,2butyne    1.737-15 1.303-15 1.858-15 5.161-16
 C4H8,1-butene   1.681-15 1.297-15 4.000-15 1.852-14
 C4H8,cis2-buten 7.238-16 5.647-16 1.922-15 1.273-14
 C4H8,tr2-butene 8.127-16 6.340-16 2.160-15 1.456-14
 C4H8,isobutene  9.243-16 7.250-16 2.594-15 2.106-14
 C4H10,n-butane  3.436-17 2.669-17 1.469-16 5.467-15
 C4H10,isobutane 1.165-17 9.126-18 5.406-17 2.685-15
 C5H6,1,3cyclo-  2.860-17 2.194-17 6.256-17 1.497-16
 C6H6            9.198-18 7.565-18 6.570-17 6.239-15
 *H              2.1339-5 1.8146-5 3.2309-6 4.8307-9
 HCN             1.0612-4 9.5073-5 5.6842-5 4.4581-6
 HCO             2.408 -7 1.959 -7 3.878 -8 6.328-11
 HCCO            1.597-11 1.155-11 1.276-12 1.315-16
 HNC             3.3722-6 2.8424-6 9.7733-7 9.2598-9
 HNCO            3.7588-6 3.3609-6 2.0379-6 2.4038-7
 HNO             6.026-12 4.265-12 1.926-13 2.082-18
 HNO2            2.101-15 1.378-15 3.225-17 4.142-23
 HO2             3.520-15 2.255-15 3.263-17 6.477-24
 *H2             4.9944-1 4.9966-1 4.9861-1 4.5824-1
 HCHO,formaldehy 3.8729-6 3.4574-6 2.0548-6 2.0726-7
 HCOOH           4.7867-7 4.2920-7 2.7651-7 6.0718-8
 H2O             6.1183-2 6.1013-2 6.0877-2 7.6197-2
 H2O2            2.784-13 1.947-13 8.057-15 8.108-20
 *N              1.281-12 8.507-13 1.612-14 4.933-21
 NCO             5.972-11 4.412-11 3.676-12 2.507-16
 *NH             1.316-10 9.289-11 3.948-12 2.301-17
 NH2             7.508 -8 5.920 -8 8.873 -9 5.712-12
 NH3             5.4858-4 5.1588-4 4.9257-4 3.3684-4
 NH2OH           4.322-12 3.158-12 3.191-13 6.561-17
 *NO             2.609 -9 1.973 -9 1.254-10 5.289-15
 *N2             2.5097-1 2.5097-1 2.5169-1 2.6616-1
 N2O             8.877-13 6.357-13 3.212-14 5.829-19
 NCN             1.240-15 7.699-16 1.669-17 4.696-24
 N2H2            7.819-12 5.669-12 5.203-13 5.602-17
 N2H4            8.701-13 6.323-13 9.853-14 6.457-17
 N3H             1.697-14 1.130-14 4.815-16 2.850-21
 *O              5.465-12 3.736-12 7.349-14 3.764-20
 *OH             1.892 -7 1.512 -7 1.575 -8 4.021-12
 *O2             2.969-13 2.031-13 4.134-15 3.326-21

  * THERMODYNAMIC PROPERTIES FITTED TO 20000.K

              THEORETICAL ROCKET PERFORMANCE ASSUMING EQUILIBRIUM

            COMPOSITION DURING EXPANSION FROM FINITE AREA COMBUSTOR

 Pin =  1469.6 PSIA
 Ac/At =  2.0000      Pinj/Pinf =  1.056766
 CASE = test___________

             REACTANT                       MOLES         ENERGY      TEMP
                                                         KJ/KG-MOL      K
 FUEL        CH6N2(L),MMH               100.0000000     54200.000    298.150
 OXIDANT     N2O4                       100.0000000     11257.595    300.000

 O/F=    0.65695  %FUEL= 60.351893  R,EQ.RATIO= 3.800000  PHI,EQ.RATIO= 3.800000

                 INJECTOR  COMB END  THROAT     EXIT
 Pinj/P            1.0000   1.1237   1.9273   16.769
 P, BAR            101.33   90.171   52.572   6.0425
 T, K             1743.17  1718.25  1526.15  1078.80
 RHO, KG/CU M    1.0054e1 9.0760e0 5.9822e0 1.0331e0
 H, KJ/KG          758.51   697.06   192.76 -1349.41
 U, KJ/KG         -249.35  -296.45  -686.05 -1934.33
 G, KJ/KG        -22145.9 -21934.7 -19908.8 -15558.7
 S, KJ/(KG)(K)    13.1395  13.1714  13.1714  13.1714

 M, (1/n)          14.381   14.380   14.439   15.335
 (dLV/dLP)t      -1.00665 -1.00656 -1.01354 -1.06463
 (dLV/dLT)p        1.0486   1.0490   1.1190   1.8355
 Cp, KJ/(KG)(K)    2.6939   2.6936   3.0443   8.2524
 GAMMAs            1.2976   1.2981   1.2875   1.1858
 SON VEL,M/SEC     1143.6   1135.6   1063.7    832.8
 MACH NUMBER        0.000    0.309    1.000    2.465

 PERFORMANCE PARAMETERS

 Ae/At                      2.0000   1.0000   3.0000
 CSTAR, M/SEC               1506.8   1506.8   1506.8
 CF                         0.2327   0.7060   1.3627
 Ivac, M/SEC                3184.6   1889.9   2338.1
 Isp, M/SEC                  350.6   1063.7   2053.2

 MOLE FRACTIONS

 *CH             3.854-15 2.302-15 2.968-17 1.571-24
 CH2             3.724-11 2.593-11 1.636-12 2.748-17
 CH3             9.8010-7 8.2493-7 3.5106-7 6.2643-9
 CH2OH           4.464-10 3.436-10 6.979-11 1.144-13
 CH3O            3.042-11 2.251-11 3.269-12 1.675-15
 CH4             1.5695-3 1.5597-3 3.6671-3 3.5067-2
 CH3OH           6.4485-8 5.6601-8 4.6624-8 1.2510-8
 *CN             4.240-11 2.970-11 1.562-12 1.593-17
 *CO             1.8113-1 1.8100-1 1.7805-1 1.4149-1
 *CO2            5.5513-3 5.6883-3 7.3602-3 2.4313-2
 COOH            3.629 -9 2.936 -9 6.035-10 1.926-12
 C2H             4.671-14 2.936-14 9.167-16 6.988-22
 C2H2,acetylene  2.2292-7 1.8595-7 8.8999-8 1.5101-9
 C2H2,vinylidene 4.189-12 2.917-12 2.837-13 1.235-17
 CH2CO,ketene    2.0163-7 1.7262-7 1.0898-7 7.3654-9
 O(CH)2O         3.208-12 2.491-12 7.018-13 3.602-15
 HO(CO)2OH       1.039-15 8.118-16 2.688-16 5.422-18
 C2H3,vinyl      6.749-11 4.990-11 1.047-11 7.209-15
 CH3CN           1.0182-7 8.9363-8 1.0906-7 5.1526-8
 CH3CO,acetyl    1.876-10 1.458-10 5.005-11 3.277-13
 C2H4            4.0660-7 3.6397-7 5.2428-7 4.2214-7
 C2H4O,ethylen-o 1.186-13 9.121-14 3.637-14 3.756-16
 CH3CHO,ethanal  4.3341-9 3.7410-9 4.1129-9 1.7674-9
 CH3COOH         8.734-11 7.555-11 8.961-11 8.084-11
 OHCH2COOH       1.162-14 8.946-15 4.007-15 1.473-16
 C2H5            2.030-10 1.610-10 1.012-10 3.347-12
 C2H6            3.7181-8 3.4141-8 9.9764-8 9.0187-7
 C2H5OH          1.108-11 9.145-12 1.102-11 5.429-12
 CH3OCH3         5.517-14 4.337-14 3.394-14 3.364-15
 OCCN            1.741-12 1.210-12 9.648-14 3.593-18
 C2N2            1.158-10 8.819-11 1.920-11 2.075-14
 C2O             6.349-13 4.315-13 2.207-14 1.671-19
 C3H3,1-propynl  4.735-16 3.082-16 3.249-17 9.226-22
 C3H3,2-propynl  6.611-12 4.804-12 1.337-12 1.439-15
 C3H4,allene     2.917-11 2.312-11 1.763-11 7.307-13
 C3H4,propyne    7.666-11 6.118-11 4.960-11 2.558-12
 C3H4,cyclo-     5.943-14 4.325-14 1.557-14 4.004-17
 C3H5,allyl      2.366-12 1.816-12 1.335-12 4.473-14
 C3H6,propylene  1.045-10 8.813-11 1.885-10 2.892-10
 C3H6,cyclo-     2.713-13 2.209-13 3.469-13 1.757-13
 C3H6O,acetone   5.035-13 4.179-13 8.139-13 1.272-12
 C3H6O,propanal  2.379-13 1.902-13 2.664-13 1.262-13
 C3H7,n-propyl   1.248-14 9.173-15 7.438-15 2.805-16
 C3H7,i-propyl   1.133-14 8.436-15 7.615-15 4.191-16
 C3H8            2.348-12 2.005-12 7.722-12 8.648-11
 C3H8O,1propanol 6.267-16 4.821-16 7.806-16 5.042-16
 C3H8O,2propanol 6.535-16 5.091-16 9.208-16 9.188-16
 C3O2            2.253-11 1.775-11 5.432-12 2.482-14
 C4H2,butadiyne  3.837-14 2.662-14 6.000-15 1.802-18
 C4H6,butadiene  8.556-14 6.655-14 1.084-13 3.490-14
 C4H6,1butyne    5.246-15 3.890-15 4.133-15 2.580-16
 C4H6,2butyne    5.047-15 3.834-15 5.039-15 6.802-16
 C4H6,cyclo-     1.366-16 1.023-16 1.189-16 1.073-17
 C4H8,1-butene   6.124-15 4.805-15 1.359-14 2.609-14
 C4H8,cis2-buten 2.680-15 2.126-15 6.635-15 1.801-14
 C4H8,tr2-butene 3.009-15 2.388-15 7.456-15 2.060-14
 C4H8,isobutene  3.450-15 2.753-15 9.025-15 2.985-14
 C4H10,n-butane  1.520-16 1.205-16 6.059-16 8.165-15
 C4H10,isobutane 5.218-17 4.171-17 2.257-16 4.023-15
 C5H6,1,3cyclo-  1.135-16 8.853-17 2.281-16 2.137-16
 C6H6            5.343-17 4.492-17 3.444-16 9.815-15
 *H              1.5478-5 1.3091-5 2.3483-6 4.4131-9
 HCN             1.1952-4 1.0714-4 6.2984-5 4.5817-6
 HCO             1.950 -7 1.581 -7 3.141 -8 5.939-11
 HCCO            1.435-11 1.034-11 1.129-12 1.264-16
 HNC             3.4698-6 2.9219-6 9.9006-7 9.2918-9
 HNCO            3.8112-6 3.4097-6 2.0680-6 2.4117-7
 HNO             3.272-12 2.296-12 1.070-13 1.779-18
 HNO2            9.200-16 5.973-16 1.472-17 3.359-23
 HO2             1.368-15 8.649-16 1.318-17 5.048-24
 *H2             5.0539-1 5.0559-1 5.0315-1 4.5779-1
 HCHO,formaldehy 3.9473-6 3.5254-6 2.0909-6 2.0735-7
 HCOOH           4.4341-7 3.9795-7 2.6083-7 5.9595-8
 H2O             5.5632-2 5.5468-2 5.6103-2 7.4198-2
 H2O2            1.351-13 9.359-14 4.055-15 6.722-20
 *N              6.391-13 4.194-13 8.101-15 4.097-21
 NCO             4.161-11 3.057-11 2.574-12 2.273-16
 *NH             7.882-11 5.515-11 2.375-12 2.009-17
 NH2             5.811 -8 4.562 -8 6.880 -9 5.353-12
 NH3             6.0438-4 5.6927-4 5.4183-4 3.4743-4
 NH2OH           2.958-12 2.152-12 2.233-13 6.004-17
 *NO             1.425 -9 1.069 -9 7.003-11 4.511-15
 *N2             2.4998-1 2.4999-1 2.5106-1 2.6679-1
 N2O             4.868-13 3.458-13 1.806-14 5.017-19
 NCN             8.049-16 4.955-16 1.075-17 4.194-24
 N2H2            5.815-12 4.197-12 3.899-13 5.241-17
 N2H4            7.808-13 5.666-13 8.881-14 6.382-17
 N3H             1.105-14 7.311-15 3.164-16 2.583-21
 *O              2.362-12 1.595-12 3.249-14 3.000-20
 *OH             1.130 -7 8.970 -8 9.581 -9 3.497-12
 *O2             1.160-13 7.835-14 1.679-15 2.588-21

  * THERMODYNAMIC PROPERTIES FITTED TO 20000.K

              THEORETICAL ROCKET PERFORMANCE ASSUMING EQUILIBRIUM

            COMPOSITION DURING EXPANSION FROM FINITE AREA COMBUSTOR

 Pin =  1469.6 PSIA
 Ac/At =  2.0000      Pinj/Pinf =  1.056614
 CASE = test___________

             REACTANT                       MOLES         ENERGY      TEMP
                                                         KJ/KG-MOL      K
 FUEL        CH6N2(L),MMH               100.0000000     54200.000    298.150
 OXIDANT     N2O4                       100.0000000     11257.595    300.000

 O/F=    0.64010  %FUEL= 60.971743  R,EQ.RATIO= 3.900000  PHI,EQ.RATIO= 3.900000

                 INJECTOR  COMB END  THROAT     EXIT
 Pinj/P            1.0000   1.1233   1.9220   16.625
 P, BAR            101.33   90.200   52.718   6.0949
 T, K             1709.17  1684.73  1502.07  1075.32
 RHO, KG/CU M    1.0183e1 9.1962e0 6.0635e0 1.0441e0
 H, KJ/KG          765.04   704.55   208.50 -1320.61
 U, KJ/KG         -229.97  -276.29  -660.94 -1904.38
 G, KJ/KG        -21714.2 -21507.3 -19595.1 -15497.9
 S, KJ/(KG)(K)    13.1522  13.1842  13.1842  13.1842

 M, (1/n)          14.282   14.281   14.364   15.316
 (dLV/dLP)t      -1.00961 -1.00956 -1.01857 -1.06733
 (dLV/dLT)p        1.0730   1.0739   1.1669   1.8732
 Cp, KJ/(KG)(K)    2.8185   2.8229   3.3196   8.5538
 GAMMAs            1.2957   1.2959   1.2802   1.1839
 SON VEL,M/SEC     1135.4   1127.4   1055.0    831.3
 MACH NUMBER        0.000    0.309    1.000    2.457

 PERFORMANCE PARAMETERS

 Ae/At                      2.0000   1.0000   3.0000
 CSTAR, M/SEC               1499.1   1499.1   1499.1
 CF                         0.2320   0.7038   1.3624
 Ivac, M/SEC                3167.8   1879.1   2328.2
 Isp, M/SEC                  347.8   1055.0   2042.4

 MOLE FRACTIONS

 *CH             2.288-15 1.355-15 1.807-17 1.351-24
 CH2             2.970-11 2.059-11 1.307-12 2.558-17
 CH3             1.1032-6 9.2901-7 3.8532-7 6.3984-9
 CH2OH           4.026-10 3.095-10 6.335-11 1.108-13
 CH3O            2.600-11 1.921-11 2.831-12 1.603-15
 CH4             2.4148-3 2.4126-3 5.3787-3 3.9020-2
 CH3OH           7.5793-8 6.6717-8 5.4073-8 1.3028-8
 *CN             3.112-11 2.168-11 1.158-12 1.453-17
 *CO             1.8124-1 1.8111-1 1.7762-1 1.3988-1
 *CO2            5.2074-3 5.3401-3 7.0270-3 2.3783-2
 COOH            2.680 -9 2.163 -9 4.624-10 1.773-12
 C2H             3.860-14 2.414-14 7.472-16 6.507-22
 C2H2,acetylene  2.9553-7 2.4697-7 1.1213-7 1.5960-9
 C2H2,vinylidene 4.335-12 3.013-12 2.842-13 1.221-17
 CH2CO,ketene    2.5089-7 2.1532-7 1.3137-7 7.6966-9
 O(CH)2O         3.162-12 2.457-12 6.934-13 3.564-15
 HO(CO)2OH       8.476-16 6.634-16 2.300-16 5.166-18
 C2H3,vinyl      8.252-11 6.105-11 1.224-11 7.471-15
 CH3CN           1.7036-7 1.5036-7 1.7080-7 5.8407-8
 CH3CO,acetyl    2.224-10 1.732-10 5.780-11 3.392-13
 C2H4            7.0342-7 6.3337-7 8.4470-7 4.8068-7
 C2H4O,ethylen-o 1.509-13 1.164-13 4.484-14 3.970-16
 CH3CHO,ethanal  6.4606-9 5.6063-9 5.8632-9 1.9464-9
 CH3COOH         1.183-10 1.029-10 1.189-10 8.746-11
 OHCH2COOH       1.215-14 9.385-15 4.254-15 1.499-16
 C2H5            3.236-10 2.578-10 1.512-10 3.738-12
 C2H6            7.8908-8 7.3122-8 1.9429-7 1.0891-6
 C2H5OH          1.840-11 1.530-11 1.738-11 6.183-12
 CH3OCH3         8.570-14 6.779-14 5.032-14 3.764-15
 OCCN            1.486-12 1.030-12 8.232-14 3.406-18
 C2N2            1.338-10 1.019-10 2.141-11 2.133-14
 C2O             4.859-13 3.287-13 1.699-14 1.529-19
 C3H3,1-propynl  6.309-16 4.110-16 4.057-17 9.708-22
 C3H3,2-propynl  1.024-11 7.466-12 1.919-12 1.577-15
 C3H4,allene     5.541-11 4.419-11 3.057-11 8.471-13
 C3H4,propyne    1.470-10 1.181-10 8.678-11 2.972-12
 C3H4,cyclo-     1.004-13 7.343-14 2.426-14 4.501-17
 C3H5,allyl      4.683-12 3.621-12 2.407-12 5.258-14
 C3H6,propylene  2.561-10 2.183-10 4.138-10 3.602-10
 C3H6,cyclo-     6.336-13 5.208-13 7.292-13 2.163-13
 C3H6O,acetone   1.093-12 9.165-13 1.622-12 1.544-12
 C3H6O,propanal  4.906-13 3.958-13 5.066-13 1.511-13
 C3H7,n-propyl   2.757-14 2.045-14 1.485-14 3.409-16
 C3H7,i-propyl   2.547-14 1.913-14 1.544-14 5.113-16
 C3H8            6.932-12 5.996-12 2.015-11 1.137-10
 C3H8O,1propanol 1.453-15 1.130-15 1.654-15 6.256-16
 C3H8O,2propanol 1.541-15 1.214-15 1.983-15 1.146-15
 C3O2            2.482-11 1.959-11 5.863-12 2.498-14
 C4H2,butadiyne  6.654-14 4.634-14 9.433-15 2.016-18
 C4H6,butadiene  2.435-13 1.916-13 2.701-13 4.496-14
 C4H6,1butyne    1.398-14 1.048-14 9.681-15 3.263-16
 C4H6,2butyne    1.391-14 1.068-14 1.217-14 8.675-16
 C4H6,cyclo-     3.690-16 2.793-16 2.822-16 1.363-17
 C4H8,1-butene   2.089-14 1.663-14 4.001-14 3.539-14
 C4H8,cis2-buten 9.287-15 7.475-15 1.980-14 2.452-14
 C4H8,tr2-butene 1.043-14 8.393-15 2.226-14 2.805-14
 C4H8,isobutene  1.205-14 9.751-15 2.714-14 4.073-14
 C4H10,n-butane  6.232-16 5.026-16 2.116-15 1.169-14
 C4H10,isobutane 2.164-16 1.760-16 7.966-16 5.776-15
 C5H6,1,3cyclo-  4.209-16 3.331-16 7.156-16 2.931-16
 C6H6            2.849-16 2.440-16 1.490-15 1.470-14
 *H              1.1410-5 9.6063-6 1.7710-6 4.0516-9
 HCN             1.3392-4 1.2011-4 6.8993-5 4.6843-6
 HCO             1.594 -7 1.289 -7 2.603 -8 5.581-11
 HCCO            1.296-11 9.318-12 1.013-12 1.211-16
 HNC             3.5682-6 3.0026-6 1.0020-6 9.2875-9
 HNCO            3.8573-6 3.4531-6 2.0924-6 2.4137-7
 HNO             1.829-12 1.275-12 6.359-14 1.535-18
 HNO2            4.186-16 2.696-16 7.342-18 2.762-23
 HO2             5.551-16 3.475-16 5.897-18 3.999-24
 *H2             5.1047-1 5.1066-1 5.0657-1 4.5707-1
 HCHO,formaldehy 4.0109-6 3.5840-6 2.1186-6 2.0686-7
 HCOOH           4.1083-7 3.6909-7 2.4683-7 5.8473-8
 H2O             5.0659-2 5.0506-2 5.2042-2 7.2413-2
 H2O2            6.763-14 4.654-14 2.202-15 5.641-20
 *N              3.306-13 2.149-13 4.416-15 3.439-21
 NCO             2.953-11 2.159-11 1.879-12 2.068-16
 *NH             4.845-11 3.366-11 1.517-12 1.767-17
 NH2             4.553 -8 3.562 -8 5.495 -9 5.028-12
 NH3             6.6158-4 6.2403-4 5.8891-4 3.5715-4
 NH2OH           2.058-12 1.493-12 1.626-13 5.518-17
 *NO             8.019-10 5.973-10 4.181-11 3.889-15
 *N2             2.4919-1 2.4920-1 2.5070-1 2.6747-1
 N2O             2.750-13 1.941-13 1.086-14 4.361-19
 NCN             5.352-16 3.272-16 7.303-18 3.756-24
 N2H2            4.391-12 3.158-12 3.025-13 4.915-17
 N2H4            7.036-13 5.101-13 8.104-14 6.295-17
 N3H             7.359-15 4.843-15 2.189-16 2.352-21
 *O              1.064-12 7.111-13 1.578-14 2.426-20
 *OH             6.915 -8 5.455 -8 6.164 -9 3.069-12
 *O2             4.735-14 3.166-14 7.551-16 2.049-21

  * THERMODYNAMIC PROPERTIES FITTED TO 20000.K

              THEORETICAL ROCKET PERFORMANCE ASSUMING EQUILIBRIUM

            COMPOSITION DURING EXPANSION FROM FINITE AREA COMBUSTOR

 Pin =  1469.6 PSIA
 Ac/At =  2.0000      Pinj/Pinf =  1.056428
 CASE = test___________

             REACTANT                       MOLES         ENERGY      TEMP
                                                         KJ/KG-MOL      K
 FUEL        CH6N2(L),MMH               100.0000000     54200.000    298.150
 OXIDANT     N2O4                       100.0000000     11257.595    300.000

 O/F=    0.62410  %FUEL= 61.572510  R,EQ.RATIO= 4.000000  PHI,EQ.RATIO= 4.000000

                 INJECTOR  COMB END  THROAT     EXIT
 Pinj/P            1.0000   1.1229   1.9166   16.505
 P, BAR            101.33   90.234   52.867   6.1392
 T, K             1678.83  1654.91  1481.76  1072.00
 RHO, KG/CU M    1.0307e1 9.3108e0 6.1387e0 1.0539e0
 H, KJ/KG          771.37   711.82   223.35 -1294.59
 U, KJ/KG         -211.74  -257.32  -637.84 -1877.12
 G, KJ/KG        -21327.2 -21125.1 -19328.7 -15439.9
 S, KJ/(KG)(K)    13.1631  13.1952  13.1952  13.1952

 M, (1/n)          14.198   14.198   14.306   15.301
 (dLV/dLP)t      -1.01341 -1.01339 -1.02397 -1.06962
 (dLV/dLT)p        1.1050   1.1068   1.2195   1.9056
 Cp, KJ/(KG)(K)    2.9854   2.9965   3.6281   8.8174
 GAMMAs            1.2922   1.2920   1.2727   1.1823
 SON VEL,M/SEC     1127.1   1119.0   1046.9    829.9
 MACH NUMBER        0.000    0.308    1.000    2.449

 PERFORMANCE PARAMETERS

 Ae/At                      2.0000   1.0000   3.0000
 CSTAR, M/SEC               1492.4   1492.4   1492.4
 CF                         0.2313   0.7015   1.3620
 Ivac, M/SEC                3153.2   1869.5   2319.3
 Isp, M/SEC                  345.1   1046.9   2032.7

 MOLE FRACTIONS

 *CH             1.412-15 8.306-16 1.173-17 1.164-24
 CH2             2.407-11 1.663-11 1.074-12 2.378-17
 CH3             1.2298-6 1.0360-6 4.1699-7 6.4972-9
 CH2OH           3.647-10 2.802-10 5.806-11 1.071-13
 CH3O            2.242-11 1.655-11 2.491-12 1.531-15
 CH4             3.5948-3 3.6062-3 7.4862-3 4.2980-2
 CH3OH           8.7729-8 7.7408-8 6.1293-8 1.3489-8
 *CN             2.339-11 1.622-11 8.924-13 1.326-17
 *CO             1.8110-1 1.8097-1 1.7689-1 1.3820-1
 *CO2            4.8925-3 5.0212-3 6.7292-3 2.3299-2
 COOH            2.016 -9 1.624 -9 3.656-10 1.637-12
 C2H             3.239-14 2.018-14 6.248-16 6.034-22
 C2H2,acetylene  3.8394-7 3.2126-7 1.3681-7 1.6698-9
 C2H2,vinylidene 4.477-12 3.107-12 2.841-13 1.199-17
 CH2CO,ketene    3.0674-7 2.6375-7 1.5407-7 7.9782-9
 O(CH)2O         3.110-12 2.419-12 6.835-13 3.511-15
 HO(CO)2OH       6.972-16 5.467-16 1.996-16 4.924-18
 C2H3,vinyl      9.940-11 7.357-11 1.398-11 7.665-15
 CH3CN           2.7456-7 2.4334-7 2.5183-7 6.5280-8
 CH3CO,acetyl    2.600-10 2.028-10 6.529-11 3.481-13
 C2H4            1.1681-6 1.0564-6 1.2752-6 5.3934-7
 C2H4O,ethylen-o 1.882-13 1.455-13 5.361-14 4.154-16
 CH3CHO,ethanal  9.3281-9 8.1287-9 7.9494-9 2.1184-9
 CH3COOH         1.560-10 1.364-10 1.513-10 9.374-11
 OHCH2COOH       1.258-14 9.754-15 4.456-15 1.517-16
 C2H5            4.978-10 3.980-10 2.138-10 4.114-12
 C2H6            1.5818-7 1.4761-7 3.4558-7 1.2909-6
 C2H5OH          2.935-11 2.455-11 2.572-11 6.940-12
 CH3OCH3         1.284-13 1.021-13 7.056-14 4.153-15
 OCCN            1.283-12 8.875-13 7.161-14 3.219-18
 C2N2            1.533-10 1.167-10 2.354-11 2.175-14
 C2O             3.791-13 2.555-13 1.351-14 1.398-19
 C3H3,1-propynl  8.236-16 5.368-16 4.909-17 1.007-21
 C3H3,2-propynl  1.538-11 1.123-11 2.622-12 1.700-15
 C3H4,allene     1.004-10 8.048-11 4.919-11 9.634-13
 C3H4,propyne    2.689-10 2.171-10 1.407-10 3.388-12
 C3H4,cyclo-     1.634-13 1.199-13 3.555-14 4.971-17
 C3H5,allyl      8.815-12 6.851-12 4.006-12 6.055-14
 C3H6,propylene  5.873-10 5.044-10 8.167-10 4.383-10
 C3H6,cyclo-     1.389-12 1.150-12 1.385-12 2.601-13
 C3H6O,acetone   2.236-12 1.890-12 2.938-12 1.834-12
 C3H6O,propanal  9.569-13 7.777-13 8.812-13 1.773-13
 C3H7,n-propyl   5.739-14 4.286-14 2.698-14 4.046-16
 C3H7,i-propyl   5.386-14 4.073-14 2.841-14 6.092-16
 C3H8            1.886-11 1.648-11 4.617-11 1.455-10
 C3H8O,1propanol 3.154-15 2.476-15 3.160-15 7.583-16
 C3H8O,2propanol 3.399-15 2.703-15 3.842-15 1.395-15
 C3O2            2.713-11 2.142-11 6.243-12 2.497-14
 C4H2,butadiyne  1.111-13 7.753-14 1.394-14 2.210-18
 C4H6,butadiene  6.421-13 5.097-13 5.950-13 5.630-14
 C4H6,1butyne    3.469-14 2.620-14 2.020-14 4.014-16
 C4H6,2butyne    3.558-14 2.755-14 2.607-14 1.076-15
 C4H6,cyclo-     9.270-16 7.074-16 5.959-16 1.684-17
 C4H8,1-butene   6.508-14 5.235-14 1.018-13 4.648-14
 C4H8,cis2-buten 2.934-14 2.388-14 5.098-14 3.231-14
 C4H8,tr2-butene 3.294-14 2.681-14 5.733-14 3.698-14
 C4H8,isobutene  3.832-14 3.137-14 7.030-14 5.380-14
 C4H10,n-butane  2.299-15 1.878-15 6.239-15 1.614-14
 C4H10,isobutane 8.065-16 6.648-16 2.371-15 8.000-15
 C5H6,1,3cyclo-  1.419-15 1.135-15 1.925-15 3.881-16
 C6H6            1.346-15 1.168-15 5.294-15 2.111-14
 *H              8.5979-6 7.2143-6 1.3850-6 3.7335-9
 HCN             1.4888-4 1.3357-4 7.4640-5 4.7669-6
 HCO             1.321 -7 1.065 -7 2.206 -8 5.248-11
 HCCO            1.178-11 8.456-12 9.191-13 1.156-16
 HNC             3.6639-6 3.0813-6 1.0121-6 9.2483-9
 HNCO            3.8950-6 3.4889-6 2.1103-6 2.4102-7
 HNO             1.065-12 7.390-13 4.041-14 1.335-18
 HNO2            2.011-16 1.287-16 4.003-18 2.296-23
 HO2             2.397-16 1.490-16 2.923-18 3.209-24
 *H2             5.1461-1 5.1477-1 5.0896-1 4.5613-1
 HCHO,formaldehy 4.0611-6 3.6308-6 2.1372-6 2.0584-7
 HCOOH           3.8127-7 3.4292-7 2.3443-7 5.7358-8
 H2O             4.6299-2 4.6163-2 4.8634-2 7.0812-2
 H2O2            3.546-14 2.428-14 1.292-15 4.780-20
 *N              1.795-13 1.159-13 2.608-15 2.909-21
 NCO             2.147-11 1.565-11 1.427-12 1.886-16
 *NH             3.086-11 2.133-11 1.027-12 1.563-17
 NH2             3.629 -8 2.832 -8 4.518 -9 4.731-12
 NH3             7.1836-4 6.7839-4 6.3251-4 3.6609-4
 NH2OH           1.466-12 1.061-12 1.232-13 5.089-17
 *NO             4.699-10 3.483-10 2.668-11 3.380-15
 *N2             2.4862-1 2.4864-1 2.5058-1 2.6820-1
 N2O             1.618-13 1.137-13 6.979-15 3.820-19
 NCN             3.673-16 2.235-16 5.224-18 3.367-24
 N2H2            3.385-12 2.429-12 2.427-13 4.616-17
 N2H4            6.380-13 4.624-13 7.480-14 6.194-17
 N3H             5.053-15 3.313-15 1.591-16 2.147-21
 *O              5.073-13 3.365-13 8.416-15 1.984-20
 *OH             4.375 -8 3.436 -8 4.193 -9 2.712-12
 *O2             2.057-14 1.365-14 3.761-16 1.645-21

  * THERMODYNAMIC PROPERTIES FITTED TO 20000.K