

         NASA-GLENN CHEMICAL EQUILIBRIUM PROGRAM CEA2, FEBRUARY 5, 2004
                   BY  BONNIE MCBRIDE AND SANFORD GORDON
      REFS: NASA RP-1311, PART I, 1994 AND NASA RP-1311, PART II, 1996

 *******************************************************************************

  
 ### CEA analysis performed on Sat 10-Dec-2022 16:19:54
  
 # Problem Type: "Rocket" (Finite Area Combustor)
  
 prob case=test___________7581 ro equilibrium    fac
  
 !Contraction Ratio:
 ac/at=2
  
 # Pressure (1 value):
 p,bar= 101.325
 # Supersonic Area Ratio (1 value):
 supar= 3
  
 # Equivalence based on Fuel/Oxid. wt ratio (Eq 9.19*) (26 values):
 phi= 0.5, 0.6, 0.7, 0.8, 0.9, 1, 1.1, 1.2, 1.3, 1.4, 1.5, 1.6, 1.7, 1.8, 1.9, 2,
  2.1, 2.2, 2.3, 2.4, 2.5, 2.6, 2.7, 2.8, 2.9, 3
  
 # You selected the following fuels and oxidizers:
 reac
 fuel CH6N2(L),MMH     mole=100.0000
 oxid N2O4             mole=100.0000  t,k= 300.000
  
 # You selected these options for output:
 # short version of output
 output short
 # Proportions of any products will be expressed as Mole Fractions.
 # Heat will be expressed as siunits
 output siunits
 # Trace variable:
 output trace=1e-16
  
 # Input prepared by this script:/var/www/sites/cearun.grc.nasa.gov/cgi-bin/CEARU
 N/prepareInputFile.cgi
  
 ### IMPORTANT:  The following line is the end of your CEA input file!
 end

              THEORETICAL ROCKET PERFORMANCE ASSUMING EQUILIBRIUM

            COMPOSITION DURING EXPANSION FROM FINITE AREA COMBUSTOR

 Pin =  1469.6 PSIA
 Ac/At =  2.0000      Pinj/Pinf =  1.052762
 CASE = test___________

             REACTANT                       MOLES         ENERGY      TEMP
                                                         KJ/KG-MOL      K
 FUEL        CH6N2(L),MMH               100.0000000     54200.000    298.150
 OXIDANT     N2O4                       100.0000000     11257.595    300.000

 O/F=    4.99281  %FUEL= 16.686659  R,EQ.RATIO= 0.500000  PHI,EQ.RATIO= 0.500000

                 INJECTOR  COMB END  THROAT     EXIT
 Pinj/P            1.0000   1.1146   1.8466   15.969
 P, BAR            101.33   90.908   54.870   6.3451
 T, K             2965.77  2941.69  2749.07  1954.71
 RHO, KG/CU M    1.1188e1 1.0124e1 6.5681e0 1.0772 0
 H, KJ/KG          298.24   246.79  -190.69 -1721.26
 U, KJ/KG         -607.43  -651.18 -1026.10 -2310.27
 G, KJ/KG        -27670.5 -27541.1 -26159.0 -20185.8
 S, KJ/(KG)(K)     9.4305   9.4462   9.4462   9.4462

 M, (1/n)          27.227   27.238   27.360   27.593
 (dLV/dLP)t      -1.00530 -1.00514 -1.00336 -1.00019
 (dLV/dLT)p        1.1176   1.1153   1.0814   1.0069
 Cp, KJ/(KG)(K)    2.6162   2.6038   2.3841   1.6977
 GAMMAs            1.1634   1.1637   1.1705   1.2191
 SON VEL,M/SEC     1026.5   1022.2    988.9    847.4
 MACH NUMBER        0.000    0.314    1.000    2.372

 PERFORMANCE PARAMETERS

 Ae/At                      2.0000   1.0000   3.0000
 CSTAR, M/SEC               1481.9   1481.9   1481.9
 CF                         0.2165   0.6673   1.3562
 Ivac, M/SEC                3120.1   1833.7   2302.8
 Isp, M/SEC                  320.8    988.9   2009.7

 MOLE FRACTIONS

 *C              1.608-14 1.239-14 8.509-16 1.835-23
 *CH             3.703-15 2.775-15 1.676-16 2.057-24
 CH2             5.826-15 4.375-15 3.006-16 1.005-23
 CH3             9.419-15 7.162-15 6.127-16 1.023-22
 CH2OH           5.424-14 4.134-14 4.479-15 4.968-21
 CH3O            1.254-14 9.405-15 8.892-16 4.558-22
 CH4             2.073-15 1.576-15 1.518-16 7.599-23
 CH3OH           2.634-15 1.991-15 2.249-16 4.293-22
 *CN             7.282-12 5.843-12 7.087-13 8.285-19
 *CO             5.6763-3 5.4796-3 3.2730-3 7.1494-5
 *CO2            9.2937-2 9.3172-2 9.5823-2 9.9867-2
 COOH            6.527 -7 5.758 -7 2.194 -7 6.042-10
 CH2CO,ketene    1.134-16 8.184-17 4.977-18 1.209-25
 HO(CO)2OH       9.361-15 7.173-15 1.406-15 2.032-19
 OCCN            4.534-16 3.261-16 1.919-17 3.733-25
 C2O             1.445-15 1.066-15 6.344-17 8.433-25
 *H              6.8077-4 6.5642-4 3.4798-4 3.2815-6
 HCN             2.527-10 2.092-10 3.715-11 5.909-16
 HCO             3.094 -8 2.651 -8 6.315 -9 5.826-13
 HNC             4.277-11 3.470-11 5.169-12 2.733-17
 HNCO            8.582 -9 7.330 -9 2.111 -9 1.046-12
 HNO             6.8316-6 6.1615-6 2.8317-6 2.9199-8
 HNO2            1.6922-5 1.5379-5 9.3430-6 8.0249-7
 HNO3            1.965 -8 1.721 -8 9.421 -9 6.772-10
 HO2             2.2800-4 2.1282-4 1.3117-4 7.5628-6
 *H2             2.3223-3 2.2562-3 1.4247-3 4.8452-5
 HCHO,formaldehy 5.492-10 4.617-10 1.045-10 9.124-15
 HCOOH           6.002 -8 5.204 -8 1.908 -8 5.446-11
 H2O             2.7871-1 2.7925-1 2.8540-1 2.9871-1
 H2O2            2.2083-5 2.0218-5 1.1777-5 6.0049-7
 *N              6.348 -7 5.715 -7 1.862 -7 1.081-10
 NCO             1.966 -9 1.652 -9 3.709-10 3.133-14
 *NH             1.590 -7 1.393 -7 4.000 -8 1.308-11
 NH2             5.849 -8 5.064 -8 1.469 -8 6.489-12
 NH3             4.574 -8 4.001 -8 1.418 -8 2.759-11
 NH2OH           3.941-10 3.256-10 8.746-11 5.113-14
 *NO             3.0681-2 2.9837-2 2.3438-2 4.8541-3
 NO2             1.9129-4 1.7959-4 1.2925-4 2.4928-5
 NO3             7.140 -9 6.258 -9 3.090 -9 9.211-11
 *N2             3.2969-1 3.3025-1 3.3504-1 3.4734-1
 N2O             1.1605-5 1.0691-5 6.5356-6 4.7663-7
 NCN             1.281-15 9.500-16 7.262-17 7.915-24
 N2H2            1.691-11 1.369-11 2.769-12 2.347-16
 NH2NO2          8.343-14 6.562-14 1.591-14 1.002-17
 N2H4            3.083-16 2.269-16 2.516-17 7.611-23
 N2O3            7.403-10 6.107-10 2.218-10 1.591-12
 N2O4            1.555-13 1.242-13 4.240-14 3.396-16
 N2O5            1.612-15 1.220-15 3.239-16 8.548-19
 N3              2.241-11 1.834-11 4.040-12 5.365-16
 N3H             5.737-12 4.597-12 9.430-13 1.020-16
 *O              4.7397-3 4.6018-3 2.8754-3 9.2432-5
 *OH             2.8644-2 2.7959-2 2.0411-2 2.1002-3
 *O2             2.2544-1 2.2608-1 2.3167-1 2.4688-1
 O3              1.3399-6 1.2052-6 6.0485-7 1.4876-8

  * THERMODYNAMIC PROPERTIES FITTED TO 20000.K

              THEORETICAL ROCKET PERFORMANCE ASSUMING EQUILIBRIUM

            COMPOSITION DURING EXPANSION FROM FINITE AREA COMBUSTOR

 Pin =  1469.6 PSIA
 Ac/At =  2.0000      Pinj/Pinf =  1.052323
 CASE = test___________

             REACTANT                       MOLES         ENERGY      TEMP
                                                         KJ/KG-MOL      K
 FUEL        CH6N2(L),MMH               100.0000000     54200.000    298.150
 OXIDANT     N2O4                       100.0000000     11257.595    300.000

 O/F=    4.16068  %FUEL= 19.377306  R,EQ.RATIO= 0.600000  PHI,EQ.RATIO= 0.600000

                 INJECTOR  COMB END  THROAT     EXIT
 Pinj/P            1.0000   1.1136   1.8359   15.392
 P, BAR            101.33   90.990   55.192   6.5830
 T, K             3145.28  3121.25  2939.23  2183.04
 RHO, KG/CU M    1.0274e1 9.3015e0 6.0301e0 9.8343-1
 H, KJ/KG          326.60   271.05  -202.15 -1882.22
 U, KJ/KG         -659.66  -707.19 -1117.43 -2551.61
 G, KJ/KG        -30445.5 -30315.8 -29005.3 -23275.1
 S, KJ/(KG)(K)     9.7836   9.7996   9.7996   9.7996

 M, (1/n)          26.516   26.529   26.700   27.116
 (dLV/dLP)t      -1.00955 -1.00935 -1.00680 -1.00071
 (dLV/dLT)p        1.1985   1.1961   1.1526   1.0224
 Cp, KJ/(KG)(K)    3.1827   3.1745   2.9276   1.9445
 GAMMAs            1.1520   1.1519   1.1554   1.1964
 SON VEL,M/SEC     1065.9   1061.5   1028.4    894.9
 MACH NUMBER        0.000    0.314    1.000    2.349

 PERFORMANCE PARAMETERS

 Ae/At                      2.0000   1.0000   3.0000
 CSTAR, M/SEC               1552.8   1552.8   1552.8
 CF                         0.2147   0.6623   1.3536
 Ivac, M/SEC                3268.0   1918.4   2420.3
 Isp, M/SEC                  333.3   1028.4   2101.8

 MOLE FRACTIONS

 *C              3.045-13 2.445-13 2.894-14 3.468-20
 *CH             8.018-14 6.264-14 6.545-15 4.533-21
 CH2             1.169-13 9.127-14 1.045-14 1.471-20
 CH3             1.633-13 1.285-13 1.734-14 7.940-20
 CH2OH           5.472-13 4.294-13 6.804-14 1.175-18
 CH3O            1.418-13 1.097-13 1.545-14 1.408-19
 CH4             3.391-14 2.660-14 3.863-15 3.698-20
 CH3OH           2.655-14 2.062-14 3.314-15 7.870-20
 *CN             7.129-11 5.902-11 1.079-11 2.563-16
 CNN             2.126-16 1.570-16 1.368-17 6.017-24
 *CO             1.3180-2 1.2864-2 8.9101-3 5.4972-4
 *CO2            9.8341-2 9.8712-2 1.0339-1 1.1350-1
 COOH            1.5862-6 1.4175-6 6.3829-7 5.6037-9
 CH2CO,ketene    2.570-15 1.927-15 1.950-16 1.793-22
 O(CH)2O         4.187-16 3.117-16 3.585-17 1.053-22
 HO(CO)2OH       2.903-14 2.259-14 5.403-15 2.806-18
 OCCN            8.120-15 6.074-15 5.967-16 4.618-22
 C2O             3.139-14 2.416-14 2.486-15 1.722-21
 *H              1.7625-3 1.7209-3 1.0782-3 3.5395-5
 HCN             1.873 -9 1.590 -9 3.924-10 6.737-14
 HCO             1.556 -7 1.362 -7 4.310 -8 3.079-11
 HCCO            1.990-15 1.488-15 1.334-16 4.864-23
 HNC             3.651-10 3.044-10 6.494-11 4.650-15
 HNCO            3.034 -8 2.634 -8 9.375 -9 2.075-11
 HNO             1.1494-5 1.0457-5 5.3770-6 1.2661-7
 HNO2            1.5968-5 1.4555-5 9.1302-6 9.8227-7
 HNO3            1.424 -8 1.249 -8 6.919 -9 5.312-10
 HO2             2.5984-4 2.4390-4 1.6099-4 1.5484-5
 *H2             5.3698-3 5.2642-3 3.7542-3 3.1436-4
 HCHO,formaldehy 2.970 -9 2.549 -9 7.584-10 4.656-13
 HCOOH           1.553 -7 1.362 -7 5.829 -8 4.703-10
 H2O             3.0799-1 3.0866-1 3.1687-1 3.3890-1
 H2O2            2.7130-5 2.4962-5 1.5450-5 1.2226-6
 *N              1.9338-6 1.7717-6 7.2465-7 2.3336-9
 NCO             8.251 -9 7.080 -9 2.084 -9 1.238-12
 *NH             5.519 -7 4.922 -7 1.783 -7 3.321-10
 NH2             2.076 -7 1.827 -7 6.553 -8 1.404-10
 NH3             1.423 -7 1.260 -7 5.247 -8 3.316-10
 NH2OH           1.086 -9 9.086-10 2.885-10 5.658-13
 *NO             3.2315-2 3.1541-2 2.5923-2 7.5760-3
 NO2             1.5275-4 1.4371-4 1.0568-4 2.3999-5
 NO3             5.456 -9 4.803 -9 2.486 -9 1.046-10
 *N2             3.2760-1 3.2817-1 3.3323-1 3.4784-1
 N2O             1.2270-5 1.1347-5 7.2692-6 7.4738-7
 NCN             1.489-14 1.144-14 1.370-15 3.987-21
 N2H2            6.607-11 5.444-11 1.385-11 6.280-15
 NH2NO2          1.399-13 1.112-13 3.057-14 4.729-17
 N2H4            2.072-15 1.561-15 2.329-16 6.216-21
 N2O3            5.933-10 4.922-10 1.897-10 2.096-12
 N2O4            9.259-14 7.423-14 2.613-14 2.572-16
 N2O5            8.296-16 6.306-16 1.735-16 5.834-19
 N3              6.271-11 5.220-11 1.426-11 9.479-15
 N3H             1.753-11 1.428-11 3.611-12 1.845-15
 *O              7.3524-3 7.2053-3 5.0795-3 4.0651-4
 *OH             4.0310-2 3.9585-2 3.1257-2 5.7983-3
 *O2             1.6529-1 1.6583-1 1.7020-1 1.8504-1
 O3              1.2521-6 1.1326-6 6.0988-7 2.5636-8

  * THERMODYNAMIC PROPERTIES FITTED TO 20000.K

              THEORETICAL ROCKET PERFORMANCE ASSUMING EQUILIBRIUM

            COMPOSITION DURING EXPANSION FROM FINITE AREA COMBUSTOR

 Pin =  1469.6 PSIA
 Ac/At =  2.0000      Pinj/Pinf =  1.052052
 CASE = test___________

             REACTANT                       MOLES         ENERGY      TEMP
                                                         KJ/KG-MOL      K
 FUEL        CH6N2(L),MMH               100.0000000     54200.000    298.150
 OXIDANT     N2O4                       100.0000000     11257.595    300.000

 O/F=    3.56629  %FUEL= 21.899599  R,EQ.RATIO= 0.700000  PHI,EQ.RATIO= 0.700000

                 INJECTOR  COMB END  THROAT     EXIT
 Pinj/P            1.0000   1.1130   1.8291   14.947
 P, BAR            101.33   91.041   55.397   6.7790
 T, K             3275.39  3251.20  3077.25  2370.13
 RHO, KG/CU M    9.6020e0 8.6966e0 5.6360e0 9.1628-1
 H, KJ/KG          353.19   294.06  -209.95 -2014.08
 U, KJ/KG         -702.06  -752.79 -1192.87 -2753.92
 G, KJ/KG        -32728.7 -32596.7 -31340.9 -25991.5
 S, KJ/(KG)(K)    10.1001  10.1165  10.1165  10.1165

 M, (1/n)          25.807   25.822   26.031   26.636
 (dLV/dLP)t      -1.01436 -1.01416 -1.01113 -1.00194
 (dLV/dLT)p        1.2852   1.2833   1.2367   1.0554
 Cp, KJ/(KG)(K)    3.7677   3.7664   3.5289   2.3061
 GAMMAs            1.1453   1.1450   1.1459   1.1748
 SON VEL,M/SEC     1099.4   1094.8   1061.3    932.3
 MACH NUMBER        0.000    0.314    1.000    2.334

 PERFORMANCE PARAMETERS

 Ae/At                      2.0000   1.0000   3.0000
 CSTAR, M/SEC               1610.2   1610.2   1610.2
 CF                         0.2136   0.6591   1.3513
 Ivac, M/SEC                3388.0   1987.4   2515.9
 Isp, M/SEC                  343.9   1061.3   2175.9

 MOLE FRACTIONS

 *C              2.349-12 1.932-12 3.235-13 6.666-18
 *CH             7.037-13 5.633-13 8.355-14 1.014-18
 CH2             1.016-12 8.111-13 1.290-13 2.615-18
 CH3             1.343-12 1.079-12 1.957-13 9.655-18
 CH2OH           2.932-12 2.341-12 4.751-13 5.911-17
 CH3O            8.203-13 6.459-13 1.180-13 8.547-18
 CH4             2.809-13 2.243-13 4.273-14 3.479-18
 CH3OH           1.483-13 1.170-13 2.374-14 3.512-18
 *CN             3.568-10 3.009-10 7.164-11 1.453-14
 CNN             1.459-15 1.102-15 1.332-16 8.517-22
 *CO             2.3829-2 2.3417-2 1.7915-2 2.3594-3
 *CO2            9.8840-2 9.9323-2 1.0582-1 1.2425-1
 COOH            2.8650-6 2.5803-6 1.2974-6 2.6586-8
 C2H2,acetylene  2.390-16 1.788-16 1.782-17 2.373-23
 CH2CO,ketene    2.521-14 1.935-14 2.742-15 3.522-20
 O(CH)2O         2.736-15 2.078-15 3.196-16 8.961-21
 HO(CO)2OH       6.222-14 4.890-14 1.343-14 1.863-17
 OCCN            6.288-14 4.814-14 6.615-15 7.290-20
 C2N2            1.599-16 1.185-16 1.278-17 3.793-23
 C2O             2.761-13 2.179-13 3.205-14 3.809-19
 C3O2            2.931-16 2.188-16 2.546-17 9.771-23
 *H              3.4282-3 3.3712-3 2.3453-3 1.8489-4
 HCN             8.133 -9 7.006 -9 2.145 -9 2.045-12
 HCO             4.866 -7 4.315 -7 1.642 -7 5.104-10
 HCCO            2.006-14 1.538-14 1.984-15 1.292-20
 HNC             1.739 -9 1.474 -9 3.973-10 1.848-13
 HNCO            7.536 -8 6.605 -8 2.707 -8 1.784-10
 HNO             1.5698-5 1.4352-5 7.9036-6 3.3240-7
 HNO2            1.3851-5 1.2645-5 8.0619-6 1.0101-6
 HNO3            9.663 -9 8.484 -9 4.705 -9 3.748-10
 HO2             2.5506-4 2.4016-4 1.6475-4 2.2421-5
 *H2             1.0094-2 9.9466-3 7.6701-3 1.2176-3
 HCHO,formaldehy 1.015 -8 8.825 -9 3.144 -9 7.932-12
 HCOOH           3.0460-7 2.6917-7 1.2784-7 2.2427-9
 H2O             3.3162-1 3.3238-1 3.4233-1 3.7296-1
 H2O2            2.9132-5 2.6880-5 1.7237-5 1.8508-6
 *N              4.0185-6 3.7184-6 1.7500-6 1.8609-8
 NCO             2.203 -8 1.914 -8 6.713 -9 1.618-11
 *NH             1.3010-6 1.1720-6 4.9044-7 3.0917-9
 NH2             5.1731-7 4.5949-7 1.8845-7 1.2317-9
 NH3             3.3887-7 3.0221-7 1.3960-7 2.0526-9
 NH2OH           2.222 -9 1.874 -9 6.613-10 3.085-12
 *NO             3.1079-2 3.0395-2 2.5616-2 9.4312-3
 NO2             1.1402-4 1.0738-4 7.9595-5 1.9965-5
 NO3             3.680 -9 3.247 -9 1.716 -9 9.029-11
 *N2             3.2610-1 3.2665-1 3.3182-1 3.4798-1
 N2O             1.1842-5 1.0975-5 7.2179-6 9.3974-7
 NCN             8.347-14 6.540-14 1.045-14 3.161-19
 N2H2            1.758-10 1.463-10 4.302-11 6.447-14
 NH2NO2          1.848-13 1.477-13 4.382-14 1.284-16
 N2H4            8.524-15 6.506-15 1.174-15 1.485-19
 N2O3            4.130-10 3.437-10 1.363-10 2.005-12
 N2O4            4.938-14 3.967-14 1.409-14 1.573-16
 N2O5            3.739-16 2.848-16 7.912-17 3.076-19
 N3              1.233-10 1.036-10 3.234-11 6.645-14
 N3H             3.802-11 3.126-11 9.013-12 1.379-14
 *O              9.1224-3 8.9867-3 6.8064-3 1.0191-3
 *OH             4.8830-2 4.8115-2 3.9829-2 1.1097-2
 *O2             1.1661-1 1.1700-1 1.1956-1 1.2945-1
 O3              9.7075-7 8.8071-7 4.9173-7 2.9478-8

  * THERMODYNAMIC PROPERTIES FITTED TO 20000.K

              THEORETICAL ROCKET PERFORMANCE ASSUMING EQUILIBRIUM

            COMPOSITION DURING EXPANSION FROM FINITE AREA COMBUSTOR

 Pin =  1469.6 PSIA
 Ac/At =  2.0000      Pinj/Pinf =  1.051896
 CASE = test___________

             REACTANT                       MOLES         ENERGY      TEMP
                                                         KJ/KG-MOL      K
 FUEL        CH6N2(L),MMH               100.0000000     54200.000    298.150
 OXIDANT     N2O4                       100.0000000     11257.595    300.000

 O/F=    3.12051  %FUEL= 24.268858  R,EQ.RATIO= 0.800000  PHI,EQ.RATIO= 0.800000

                 INJECTOR  COMB END  THROAT     EXIT
 Pinj/P            1.0000   1.1126   1.8250   14.627
 P, BAR            101.33   91.070   55.521   6.9274
 T, K             3368.56  3344.13  3175.51  2514.86
 RHO, KG/CU M    9.0858e0 8.2311e0 5.3337e0 8.6584-1
 H, KJ/KG          378.16   315.87  -215.28 -2123.98
 U, KJ/KG         -737.04  -790.54 -1256.24 -2924.06
 G, KJ/KG        -34609.0 -34473.5 -33250.5 -28286.4
 S, KJ/(KG)(K)    10.3864  10.4031  10.4031  10.4031

 M, (1/n)          25.115   25.131   25.364   26.135
 (dLV/dLP)t      -1.01904 -1.01884 -1.01569 -1.00424
 (dLV/dLT)p        1.3661   1.3650   1.3215   1.1122
 Cp, KJ/(KG)(K)    4.3197   4.3266   4.1293   2.8239
 GAMMAs            1.1415   1.1411   1.1402   1.1562
 SON VEL,M/SEC     1128.3   1123.6   1089.4    961.8
 MACH NUMBER        0.000    0.314    1.000    2.326

 PERFORMANCE PARAMETERS

 Ae/At                      2.0000  1.00000   3.0000
 CSTAR, M/SEC               1657.7   1657.7   1657.7
 CF                         0.2129   0.6572   1.3494
 Ivac, M/SEC                3487.5   2044.9   2594.7
 Isp, M/SEC                  353.0   1089.4   2237.0

 MOLE FRACTIONS

 *C              1.042-11 8.698-12 1.828-12 2.810-16
 *CH             3.554-12 2.887-12 5.404-13 5.033-17
 CH2             5.319-12 4.308-12 8.557-13 1.180-16
 CH3             7.083-12 5.763-12 1.284-12 3.591-16
 CH2OH           1.070-11 8.638-12 2.078-12 1.088-15
 CH3O            3.155-12 2.512-12 5.483-13 1.791-16
 CH4             1.558-12 1.259-12 2.907-13 1.165-16
 CH3OH           5.821-13 4.640-13 1.108-13 6.355-17
 CH3OOH          1.881-16 1.396-16 2.266-17 2.224-21
 *CN             1.185 -9 1.011 -9 2.871-10 2.698-13
 CNN             5.984-15 4.584-15 6.872-16 2.933-20
 *CO             3.6913-2 3.6436-2 2.9903-2 6.9210-3
 *CO2            9.5375-2 9.5937-2 1.0370-1 1.3075-1
 COOH            4.2729-6 3.8674-6 2.0954-6 7.9572-8
 C2H             2.134-16 1.580-16 1.574-17 4.708-23
 C2H2,acetylene  2.301-15 1.753-15 2.340-16 3.595-21
 CH2CO,ketene    1.495-13 1.164-13 2.089-14 1.886-18
 O(CH)2O         1.140-14 8.769-15 1.652-15 2.454-19
 HO(CO)2OH       1.047-13 8.278-14 2.510-14 7.406-17
 CH3CO,acetyl    1.030-16 7.466-17 8.632-18 8.885-23
 OCCN            2.916-13 2.266-13 3.916-14 2.984-18
 C2N2            1.015-15 7.647-16 1.064-16 2.692-21
 C2O             1.395-12 1.118-12 2.097-13 1.955-17
 C3O2            1.776-15 1.348-15 2.051-16 7.056-21
 *H              5.5880-3 5.5183-3 4.1064-3 5.9586-4
 HCN             2.566 -8 2.231 -8 7.935 -9 2.656-11
 HCO             1.1359-6 1.0155-6 4.3818-7 3.9449-9
 HCCO            1.159-13 9.031-14 1.495-14 7.962-19
 HNC             5.836 -9 4.995 -9 1.582 -9 2.876-12
 HNCO            1.509 -7 1.330 -7 6.017 -8 8.898-10
 HNO             1.8638-5 1.7087-5 9.7943-6 6.0680-7
 HNO2            1.1182-5 1.0215-5 6.5305-6 8.7789-7
 HNO3            6.104 -9 5.360 -9 2.938 -9 2.268-10
 HO2             2.2367-4 2.1093-4 1.4711-4 2.4466-5
 *H2             1.6794-2 1.6601-2 1.3509-2 3.4052-3
 HCHO,formaldehy 2.629 -8 2.303 -8 9.301 -9 6.646-11
 HCOOH           5.0159-7 4.4534-7 2.2776-7 7.1761-9
 H2O             3.5041-1 3.5125-1 3.6273-1 4.0114-1
 H2O2            2.8334-5 2.6182-5 1.7084-5 2.2113-6
 *N              6.5541-6 6.0991-6 3.1291-6 7.5023-8
 NCO             4.430 -8 3.878 -8 1.529 -8 1.006-10
 *NH             2.4108-6 2.1847-6 1.0020-6 1.4680-8
 NH2             1.0393-6 9.2826-7 4.1577-7 5.9741-9
 NH3             6.8990-7 6.1791-7 3.0690-7 8.3767-9
 NH2OH           3.772 -9 3.194 -9 1.208 -9 1.040-11
 *NO             2.7906-2 2.7318-2 2.3262-2 9.7700-3
 NO2             7.9703-5 7.5085-5 5.5362-5 1.4149-5
 NO3             2.216 -9 1.958 -9 1.032 -9 5.882-11
 N2             3.2498-1 3.2550-1 3.3069-1 3.4788-1
 N2O             1.0662-5 9.8912-6 6.5775-6 9.8330-7
 NCN             2.990-13 2.372-13 4.586-14 7.374-18
 N2H2            3.694-10 3.093-10 ****-11 3.501-13
 NH2NO2          2.066-13 1.657-13 5.127-14 2.288-16
 N2H4            2.614-14 2.011-14 4.125-15 1.601-18
 N2O3            2.541-10 2.117-10 8.419-11 1.403-12
 N2O4            2.345-14 1.884-14 6.594-15 7.316-17
 N2O5            1.462-16 1.115-16 3.036-17 1.160-19
 N3              1.938-10 1.637-10 5.545-11 2.464-13
 N3H             6.666-11 5.511-11 1.727-11 5.677-14
 *O              9.7160-3 9.5987-3 7.5598-3 1.6896-3
 *OH             5.3443-2 5.2759-2 4.4862-2 1.6284-2
 *O2             7.8486-2 7.8726-2 7.9427-2 8.1519-2
 O3              6.4419-7 5.8507-7 3.2907-7 2.3423-8

  * THERMODYNAMIC PROPERTIES FITTED TO 20000.K

              THEORETICAL ROCKET PERFORMANCE ASSUMING EQUILIBRIUM

            COMPOSITION DURING EXPANSION FROM FINITE AREA COMBUSTOR

 Pin =  1469.6 PSIA
 Ac/At =  2.0000      Pinj/Pinf =  1.051818
 CASE = test___________

             REACTANT                       MOLES         ENERGY      TEMP
                                                         KJ/KG-MOL      K
 FUEL        CH6N2(L),MMH               100.0000000     54200.000    298.150
 OXIDANT     N2O4                       100.0000000     11257.595    300.000

 O/F=    2.77378  %FUEL= 26.498602  R,EQ.RATIO= 0.900000  PHI,EQ.RATIO= 0.900000

                 INJECTOR  COMB END  THROAT     EXIT
 Pinj/P            1.0000   1.1124   1.8228   14.421
 P, BAR            101.33   91.085   55.586   7.0261
 T, K             3431.82  3407.10  3241.32  2616.00
 RHO, KG/CU M    8.6792e0 7.8640e0 5.0957e0 8.2679-1
 H, KJ/KG          401.67   336.56  -218.60 -2216.28
 U, KJ/KG         -765.78  -821.69 -1309.44 -3066.09
 G, KJ/KG        -36135.0 -35995.5 -34782.8 -30112.4
 S, KJ/(KG)(K)    10.6464  10.6636  10.6636  10.6636

 M, (1/n)          24.441   24.458   24.706   25.595
 (dLV/dLP)t      -1.02278 -1.02261 -1.01956 -1.00758
 (dLV/dLT)p        1.4291   1.4289   1.3915   1.1907
 Cp, KJ/(KG)(K)    4.7770   4.7916   4.6475   3.4900
 GAMMAs            1.1398   1.1393   1.1372   1.1421
 SON VEL,M/SEC     1153.5   1148.7   1113.8    985.2
 MACH NUMBER        0.000    0.314    1.000    2.323

 PERFORMANCE PARAMETERS

 Ae/At                      2.0000   1.0000   3.0000
 CSTAR, M/SEC               1697.3   1697.3   1697.3
 CF                         0.2126   0.6562   1.3481
 Ivac, M/SEC                3570.6   2093.2   2659.6
 Isp, M/SEC                  360.9   1113.8   2288.2

 MOLE FRACTIONS

 *C              3.184-11 2.682-11 6.564-12 4.124-15
 *CH             1.244-11 1.020-11 2.243-12 8.970-16
 CH2             2.007-11 1.641-11 3.824-12 2.167-15
 CH3             2.829-11 2.322-11 6.040-12 6.393-15
 CH2OH           3.049-11 2.478-11 6.756-12 1.043-14
 CH3O            9.300-12 7.460-12 1.854-12 1.868-15
 CH4             6.780-12 5.523-12 1.486-12 2.130-15
 CH3OH           1.831-12 1.469-12 3.985-13 6.613-16
 CH3OOH          4.949-16 3.699-16 6.783-17 1.940-20
 *CN             3.003 -9 2.579 -9 8.284-10 2.356-12
 CNN             1.737-14 1.342-14 2.327-15 3.787-19
 *CO             5.1646-2 5.1140-2 4.4238-2 1.5800-2
 *CO2            8.8921-2 8.9524-2 9.7854-2 1.3141-1
 COOH            5.5628-6 5.0512-6 2.8797-6 1.6974-7
 C2H             1.398-15 1.049-15 1.323-16 3.142-21
 C2H2,acetylene  1.501-14 1.158-14 1.928-15 1.956-19
 C2H2,vinylidene 1.122-16 8.290-17 1.015-17 2.218-22
 CH2CO,ketene    6.445-13 5.072-13 1.089-13 4.470-17
 O(CH)2O         3.540-14 2.748-14 6.021-15 3.203-18
 HO(CO)2OH       1.481-13 1.177-13 3.836-14 2.021-16
 CH3CO,acetyl    5.689-16 4.174-16 5.925-17 3.481-21
 OCCN            9.663-13 7.582-13 1.547-13 4.972-17
 C2N2            4.554-15 3.468-15 5.834-16 7.561-20
 C2O             4.890-12 3.960-12 8.835-13 3.762-16
 C3O2            7.378-15 5.668-15 1.053-15 1.951-19
 *H              8.0775-3 7.9966-3 6.2177-3 1.3689-3
 HCN             6.622 -8 5.794 -8 2.307 -8 2.026-10
 HCO             2.1833-6 1.9622-6 9.2604-7 1.8214-8
 HCCO            4.668-13 3.676-13 7.305-14 1.883-17
 HNC             1.567 -8 1.350 -8 4.818 -9 2.459-11
 HNCO            2.6242-7 2.3243-7 1.1317-7 3.1158-9
 HNO             1.9864-5 1.8232-5 1.0648-5 8.1980-7
 HNO2            8.3998-6 7.6714-6 4.8445-6 6.2309-7
 HNO3            3.542 -9 3.106 -9 1.653 -9 1.078-10
 HO2             1.7734-4 1.6727-4 1.1616-4 2.0049-5
 *H2             2.5904-2 2.5662-2 2.1761-2 7.8247-3
 HCHO,formaldehy 5.692 -8 5.013 -8 2.226 -8 3.539-10
 HCOOH           7.3342-7 6.5335-7 3.5325-7 1.7505-8
 H2O             3.6464-1 3.6554-1 3.7839-1 4.2356-1
 H2O2            2.5300-5 2.3388-5 1.5281-5 2.1014-6
 *N              8.9961-6 8.3968-6 4.5268-6 1.8134-7
 NCO             7.339 -8 6.455 -8 2.756 -8 3.699-10
 *NH             3.7853-6 3.4418-6 1.6724-6 4.3072-8
 NH2             1.8112-6 1.6231-6 7.7259-7 1.9458-8
 NH3             1.2771-6 1.1472-6 6.0324-7 2.6787-8
 NH2OH           5.621 -9 4.773 -9 1.888 -9 2.483-11
 *NO             2.3550-2 2.3056-2 1.9563-2 8.4010-3
 NO2             5.1788-5 4.8752-5 3.5162-5 8.0568-6
 NO3             1.184 -9 1.045 -9 5.349-10 2.674-11
 *N2             3.2399-1 3.2447-1 3.2964-1 3.4747-1
 N2O             9.0125-6 8.3614-6 5.5421-6 8.5169-7
 NCN             7.951-13 6.355-13 1.401-13 7.443-17
 N2H2            6.629-10 5.570-10 1.921-10 1.228-12
 NH2NO2          2.019-13 1.621-13 5.093-14 2.807-16
 N2H4            6.645-14 5.138-14 1.158-14 1.038-17
 N2O3            1.376-10 1.145-10 4.433-11 6.674-13
 N2O4            9.719-15 7.797-15 2.605-15 2.265-17
 N3              2.595-10 2.199-10 7.802-11 5.651-13
 N3H             1.009-10 8.369-11 2.765-11 1.523-13
 *O              9.1634-3 9.0628-3 7.2317-3 1.9583-3
 *OH             5.4019-2 5.3372-2 4.5892-2 1.9115-2
 *O2             4.9775-2 4.9879-2 4.9018-2 4.3063-2
 O3              3.6715-7 3.3320-7 1.8291-7 1.2127-8

  * THERMODYNAMIC PROPERTIES FITTED TO 20000.K

              THEORETICAL ROCKET PERFORMANCE ASSUMING EQUILIBRIUM

            COMPOSITION DURING EXPANSION FROM FINITE AREA COMBUSTOR

 Pin =  1469.6 PSIA
 Ac/At =  2.0000      Pinj/Pinf =  1.051809
 CASE = test___________

             REACTANT                       MOLES         ENERGY      TEMP
                                                         KJ/KG-MOL      K
 FUEL        CH6N2(L),MMH               100.0000000     54200.000    298.150
 OXIDANT     N2O4                       100.0000000     11257.595    300.000

 O/F=    2.49641  %FUEL= 28.600801  R,EQ.RATIO= 1.000000  PHI,EQ.RATIO= 1.000000

                 INJECTOR  COMB END  THROAT     EXIT
 Pinj/P            1.0000   1.1124   1.8225   14.346
 P, BAR            101.33   91.087   55.598   7.0630
 T, K             3468.23  3443.20  3277.46  2665.49
 RHO, KG/CU M    8.3578e0 7.5733e0 4.9077e0 7.9640-1
 H, KJ/KG          423.82   356.23  -220.06 -2292.96
 U, KJ/KG         -788.52  -846.51 -1352.94 -3179.83
 G, KJ/KG        -37322.2 -37178.2 -35947.8 -31349.6
 S, KJ/(KG)(K)    10.8834  10.9010  10.9010  10.9010

 M, (1/n)          23.786   23.803   24.054   24.989
 (dLV/dLP)t      -1.02467 -1.02451 -1.02152 -1.01008
 (dLV/dLT)p        1.4596   1.4598   1.4259   1.2486
 Cp, KJ/(KG)(K)    5.0542   5.0730   4.9563   4.0061
 GAMMAs            1.1398   1.1393   1.1367   1.1356
 SON VEL,M/SEC     1175.5   1170.6   1134.8   1003.6
 MACH NUMBER        0.000    0.314    1.000    2.323

 PERFORMANCE PARAMETERS

 Ae/At                      2.0000   1.0000   3.0000
 CSTAR, M/SEC               1729.8   1729.8   1729.8
 CF                         0.2126   0.6560   1.3476
 Ivac, M/SEC                3638.8   2133.1   2711.5
 Isp, M/SEC                  367.7   1134.8   2331.0

 MOLE FRACTIONS

 *C              7.369-11 6.241-11 1.686-11 2.664-14
 *CH             3.335-11 2.751-11 6.761-12 7.555-15
 CH2             6.021-11 4.954-11 1.304-11 2.205-14
 CH3             9.402-11 7.767-11 2.302-11 7.645-14
 CH2OH           7.304-11 5.969-11 1.798-11 6.664-14
 CH3O            2.272-11 1.832-11 5.036-12 1.241-14
 CH4             2.537-11 2.082-11 6.436-12 3.078-14
 CH3OH           4.975-12 4.017-12 1.216-12 5.230-15
 CH3OOH          1.061-15 7.965-16 1.596-16 1.006-19
 *CN             6.252 -9 5.394 -9 1.891 -9 1.195-11
 CNN             3.900-14 3.029-14 5.775-15 2.297-18
 *CO             6.7255-2 6.6759-2 6.0209-2 3.0723-2
 *CO2            8.0393-2 8.0995-2 8.9111-2 1.2441-1
 COOH            6.5056-6 5.9190-6 3.4830-6 2.7109-7
 *C2             2.443-16 1.838-16 2.412-17 1.318-21
 C2H             6.588-15 4.993-15 7.553-16 9.088-20
 C2H2,acetylene  7.573-14 5.901-14 1.184-14 6.139-18
 C2H2,vinylidene 6.025-16 4.498-16 6.686-17 8.081-21
 CH2CO,ketene    2.248-12 1.783-12 4.456-13 6.793-16
 O(CH)2O         8.953-14 6.997-14 1.730-14 2.627-17
 HO(CO)2OH       1.831-13 1.460-13 5.014-14 4.069-16
 CH3CO,acetyl    2.446-15 1.811-15 3.050-16 7.955-20
 CH3COOH         1.023-16 7.523-17 1.449-17 8.343-21
 CNC             1.681-16 1.242-16 1.636-17 1.047-21
 OCCN            2.523-12 1.993-12 4.609-13 4.510-16
 C2N2            1.616-14 1.241-14 2.433-15 1.226-18
 C2O             1.319-11 1.075-11 2.728-12 3.655-15
 C3O2            2.362-14 1.831-14 3.991-15 2.974-18
 *H              1.0653-2 1.0561-2 8.4350-3 2.3990-3
 HCN             1.4950-7 1.3145-7 5.7471-8 1.1513-9
 HCO             3.6444-6 3.2873-6 1.6569-6 5.8440-8
 HCCO            1.460-12 1.159-12 2.654-13 2.398-16
 HNC             3.618 -8 3.133 -8 1.231 -8 1.472-10
 HNCO            4.1394-7 3.6782-7 1.9010-7 8.7825-9
 HNO             1.9231-5 1.7649-5 1.0281-5 7.9792-7
 HNO2            5.8247-6 5.3112-6 3.2433-6 3.2012-7
 HNO3            1.852 -9 1.620 -9 8.116-10 3.272-11
 HO2             1.2685-4 1.1949-4 8.0497-5 1.1028-5
 *H2             3.8021-2 3.7732-2 3.3174-2 1.6342-2
 HCHO,formaldehy 1.0900-7 9.6399-8 4.6273-8 1.4460-9
 HCOOH           9.8239-7 8.7734-7 4.9551-7 3.5463-8
 H2O             3.7412-1 3.7508-1 3.8905-1 4.3911-1
 H2O2            2.0757-5 1.9173-5 1.2304-5 1.4752-6
 *N              1.0730-5 1.0025-5 5.5053-6 2.7237-7
 NCO             1.050 -7 9.259 -8 4.162 -8 8.949-10
 *NH             5.2238-6 4.7573-6 2.3865-6 8.4317-8
 NH2             2.8438-6 2.5538-6 1.2693-6 4.7648-8
 NH3             2.2262-6 2.0047-6 1.1104-6 7.7529-8
 NH2OH           7.561 -9 6.428 -9 2.615 -9 4.466-11
 *NO             1.8640-2 1.8231-2 1.5149-2 5.5646-3
 NO2             3.0853-5 2.8979-5 1.9932-5 3.1367-6
 NO3             5.505-10 4.843-10 2.312-10 6.672-12
 *N2             3.2287-1 3.2331-1 3.2838-1 3.4626-1
 N2O             7.1344-6 6.6121-6 4.2912-6 5.6504-7
 NCN             1.699-12 1.365-12 3.294-13 4.029-16
 N2H2            1.057 -9 8.901-10 3.210-10 3.108-12
 NH2NO2          1.739-13 1.395-13 4.327-14 2.210-16
 N2H4            1.483-13 1.151-13 2.798-14 4.955-17
 N2O3            6.441-11 5.345-11 1.930-11 1.697-13
 N2O4            3.414-15 2.727-15 8.275-16 3.357-18
 N3              3.047-10 2.584-10 9.326-11 8.250-13
 N3H             1.363-10 1.131-10 3.849-11 2.850-13
 *O              7.7250-3 7.6358-3 6.0053-3 1.4921-3
 *OH             5.0805-2 5.0189-2 4.2943-2 1.7459-2
 *O2             2.9278-2 2.9273-2 2.7398-2 1.6226-2
 O3              1.7732-7 1.6040-7 8.2243-8 3.2233-9

  * THERMODYNAMIC PROPERTIES FITTED TO 20000.K

              THEORETICAL ROCKET PERFORMANCE ASSUMING EQUILIBRIUM

            COMPOSITION DURING EXPANSION FROM FINITE AREA COMBUSTOR

 Pin =  1469.6 PSIA
 Ac/At =  2.0000      Pinj/Pinf =  1.051885
 CASE = test___________

             REACTANT                       MOLES         ENERGY      TEMP
                                                         KJ/KG-MOL      K
 FUEL        CH6N2(L),MMH               100.0000000     54200.000    298.150
 OXIDANT     N2O4                       100.0000000     11257.595    300.000

 O/F=    2.26946  %FUEL= 30.586094  R,EQ.RATIO= 1.100000  PHI,EQ.RATIO= 1.100000

                 INJECTOR  COMB END  THROAT     EXIT
 Pinj/P            1.0000   1.1126   1.8243   14.511
 P, BAR            101.33   91.072   55.542   6.9826
 T, K             3478.33  3452.91  3283.28  2635.37
 RHO, KG/CU M    8.1086e0 7.3471e0 4.7617e0 7.7304-1
 H, KJ/KG          444.75   374.98  -219.70 -2356.48
 U, KJ/KG         -804.84  -864.60 -1386.13 -3259.75
 G, KJ/KG        -38162.6 -38013.0 -36721.8 -31655.4
 S, KJ/(KG)(K)    11.0994  11.1176  11.1176  11.1176

 M, (1/n)          23.144   23.161   23.404   24.258
 (dLV/dLP)t      -1.02389 -1.02370 -1.02037 -1.00655
 (dLV/dLT)p        1.4440   1.4437   1.4027   1.1643
 Cp, KJ/(KG)(K)    5.0558   5.0713   4.9006   3.4029
 GAMMAs            1.1419   1.1413   1.1393   1.1494
 SON VEL,M/SEC     1194.5   1189.4   1152.8   1018.9
 MACH NUMBER        0.000    0.314    1.000    2.323

 PERFORMANCE PARAMETERS

 Ae/At                      2.0000   1.0000   3.0000
 CSTAR, M/SEC               1754.8   1754.8   1754.8
 CF                         0.2129   0.6569   1.3488
 Ivac, M/SEC                3691.8   2164.6   2748.6
 Isp, M/SEC                  373.6   1152.8   2367.0

 MOLE FRACTIONS

 *C              1.350-10 1.145-10 3.247-11 6.837-14
 *CH             7.177-11 5.940-11 1.565-11 2.927-14
 CH2             1.509-10 1.247-10 3.606-11 1.351-13
 CH3             2.735-10 2.273-10 7.590-11 7.529-13
 CH2OH           1.531-10 1.256-10 4.109-11 3.121-13
 CH3O            4.786-11 3.875-11 1.155-11 5.676-14
 CH4             8.608-11 7.112-11 2.537-11 4.792-13
 CH3OH           1.219-11 9.890-12 3.328-12 3.816-14
 CH3OOH          1.918-15 1.445-15 3.076-16 3.084-19
 *CN             1.110 -8 9.606 -9 3.565 -9 3.514-11
 CNN             7.056-14 5.491-14 1.100-14 6.002-18
 *CO             8.2934-2 8.2487-2 7.6955-2 5.3032-2
 *CO2            7.0700-2 7.1258-2 7.8410-2 1.0801-1
 COOH            6.9296-6 6.3095-6 3.7556-6 3.0413-7
 *C2             7.706-16 5.830-16 8.593-17 1.176-20
 C2H             2.409-14 1.839-14 3.206-15 1.313-18
 C2H2,acetylene  3.185-13 2.503-13 5.956-14 1.496-16
 C2H2,vinylidene 2.577-15 1.940-15 3.401-16 1.800-19
 CH2CO,ketene    6.734-12 5.380-12 1.542-12 8.354-15
 O(CH)2O         1.935-13 1.521-13 4.153-14 1.527-16
 HO(CO)2OH       2.021-13 1.615-13 5.720-14 5.859-16
 C2H3,vinyl      2.605-16 1.906-16 3.038-17 1.295-20
 CH3CN           1.889-16 1.387-16 2.583-17 2.968-20
 CH3CO,acetyl    8.760-15 6.536-15 1.282-15 1.355-18
 C2H4            1.080-16 7.944-17 1.456-17 1.626-20
 CH3CHO,ethanal  2.428-16 1.785-16 3.496-17 4.677-20
 CH3COOH         3.066-16 2.270-16 5.034-17 1.088-19
 OHCH2COOH       1.492-16 1.080-16 2.184-17 2.626-20
 CNC             5.217-16 3.877-16 5.758-17 9.923-21
 OCCN            5.469-12 4.341-12 1.102-12 2.388-15
 C2N2            4.825-14 3.728-14 8.339-15 1.389-17
 C2O             2.889-11 2.367-11 6.580-12 1.876-14
 C3O2            6.221-14 4.858-14 1.209-14 2.973-17
 *H              1.2972-2 1.2864-2 1.0382-2 3.0546-3
 HCN             3.0641-7 2.7057-7 1.2870-7 5.6025-9
 HCO             5.4297-6 4.9094-6 2.5910-6 1.3211-7
 HCCO            3.760-12 3.001-12 7.693-13 1.852-15
 HNC             7.461 -8 6.487 -8 2.767 -8 6.941-10
 HNCO            6.0610-7 5.3998-7 2.9342-7 2.1253-8
 HNO             1.6924-5 1.5505-5 8.7719-6 4.6720-7
 HNO2            3.6870-6 3.3501-6 1.9158-6 8.9788-8
 HNO3            8.549-10 7.435-10 3.349-10 4.107-12
 HO2             8.1131-5 7.6150-5 4.7952-5 2.9983-6
 *H2             5.3814-2 5.3497-2 4.8724-2 3.3169-2
 HCHO,formaldehy 1.9034-7 1.6894-7 8.6804-8 5.0061-9
 HCOOH           1.2259-6 1.0969-6 6.4078-7 6.1073-8
 H2O             3.7834-1 3.7934-1 3.9387-1 4.4308-1
 H2O2            1.5560-5 1.4338-5 8.7930-6 6.1342-7
 *N              1.1238-5 1.0488-5 5.6683-6 2.1264-7
 NCO             1.3253-7 1.1706-7 5.3920-8 1.3402-9
 *NH             6.4281-6 5.8535-6 2.9523-6 9.9408-8
 NH2             4.0923-6 3.6790-6 1.8810-6 8.6965-8
 NH3             3.7212-6 3.3592-6 1.9627-6 2.2669-7
 NH2OH           9.278 -9 7.889 -9 3.242 -9 5.667-11
 *NO             1.3752-2 1.3418-2 1.0654-2 2.3198-3
 NO2             1.6596-5 1.5517-5 9.7888-6 5.8698-7
 NO3             2.181-10 1.905-10 7.982-11 5.320-13
 *N2             3.2134-1 3.2174-1 3.2659-1 3.4289-1
 N2O             5.2539-6 4.8566-6 3.0089-6 2.3296-7
 NCN             3.034-12 2.442-12 6.220-13 1.128-15
 N2H2            1.525 -9 1.285 -9 4.755-10 5.504-12
 NH2NO2          1.316-13 1.053-13 3.100-14 8.401-17
 N2H4            2.989-13 2.326-13 6.032-14 1.879-16
 N2O3            2.551-11 2.102-11 6.652-12 1.324-14
 N2O4            9.852-16 7.796-16 1.990-16 1.182-19
 N3              3.166-10 2.681-10 9.520-11 6.421-13
 N3H             1.660-10 1.378-10 4.715-11 3.384-13
 *O              5.8097-3 5.7270-3 4.2830-3 5.7736-4
 *OH             4.4442-2 4.3843-2 3.6564-2 1.0731-2
 *O2             1.5724-2 1.5654-2 1.3465-2 3.1285-3
 O3              7.111 -8 6.387 -8 2.865 -8 2.498-10

  * THERMODYNAMIC PROPERTIES FITTED TO 20000.K

              THEORETICAL ROCKET PERFORMANCE ASSUMING EQUILIBRIUM

            COMPOSITION DURING EXPANSION FROM FINITE AREA COMBUSTOR

 Pin =  1469.6 PSIA
 Ac/At =  2.0000      Pinj/Pinf =  1.052074
 CASE = test___________

             REACTANT                       MOLES         ENERGY      TEMP
                                                         KJ/KG-MOL      K
 FUEL        CH6N2(L),MMH               100.0000000     54200.000    298.150
 OXIDANT     N2O4                       100.0000000     11257.595    300.000

 O/F=    2.08034  %FUEL= 32.463970  R,EQ.RATIO= 1.200000  PHI,EQ.RATIO= 1.200000

                 INJECTOR  COMB END  THROAT     EXIT
 Pinj/P            1.0000   1.1130   1.8292   15.002
 P, BAR            101.33   91.037   55.395   6.7540
 T, K             3461.90  3435.92  3257.00  2512.87
 RHO, KG/CU M    7.9248e0 7.1790e0 4.6537e0 7.5629-1
 H, KJ/KG          464.55   392.89  -217.56 -2404.99
 U, KJ/KG         -814.03  -875.21 -1407.90 -3298.03
 G, KJ/KG        -38642.2 -38484.7 -37070.7 -30838.3
 S, KJ/(KG)(K)    11.2963  11.3151  11.3151  11.3151

 M, (1/n)          22.513   22.528   22.750   23.396
 (dLV/dLP)t      -1.02049 -1.02025 -1.01624 -1.00217
 (dLV/dLT)p        1.3825   1.3808   1.3236   1.0561
 Cp, KJ/(KG)(K)    4.7577   4.7616   4.4557   2.5246
 GAMMAs            1.1466   1.1462   1.1461   1.1832
 SON VEL,M/SEC     1210.8   1205.6   1168.0   1027.9
 MACH NUMBER        0.000    0.314    1.000    2.331

 PERFORMANCE PARAMETERS

 Ae/At                      2.0000   1.0000   3.0000
 CSTAR, M/SEC               1771.9   1771.9   1771.9
 CF                         0.2137   0.6592   1.3520
 Ivac, M/SEC                3728.3   2187.1   2768.4
 Isp, M/SEC                  378.6   1168.0   2395.6

 MOLE FRACTIONS

 *C              1.989-10 1.686-10 4.728-11 5.219-14
 *CH             1.263-10 1.046-10 2.814-11 3.945-14
 CH2             3.221-10 2.669-10 8.222-11 3.915-13
 CH3             7.112-10 5.943-10 2.215-10 5.052-12
 CH2OH           2.853-10 2.348-10 8.183-11 9.027-13
 CH3O            8.845-11 7.179-11 2.266-11 1.484-13
 CH4             2.707-10 2.254-10 9.354-11 6.938-12
 CH3OH           2.738-11 2.234-11 8.322-12 2.231-13
 CH3OOH          2.967-15 2.237-15 4.888-16 4.565-19
 *CN             1.708 -8 1.479 -8 5.613 -9 4.917-11
 CNN             1.045-13 8.124-14 1.620-14 5.148-18
 *CO             9.7831-2 9.7463-2 9.3342-2 7.7791-2
 *CO2            6.0784-2 6.1264-2 6.6956-2 8.7064-2
 COOH            6.7735-6 6.1627-6 3.6222-6 2.2105-7
 *C2             1.850-15 1.403-15 2.177-16 2.577-20
 C2H             7.062-14 5.417-14 1.043-14 6.873-18
 C2H2,acetylene  1.155-12 9.152-13 2.549-13 2.233-15
 C2H2,vinylidene 9.091-15 6.890-15 1.384-15 1.818-18
 CH2CO,ketene    1.784-11 1.434-11 4.661-12 6.941-14
 O(CH)2O         3.664-13 2.890-13 8.533-14 5.326-16
 HO(CO)2OH       2.020-13 1.614-13 5.757-14 5.633-16
 C2H3,vinyl      1.095-15 8.082-16 1.521-16 2.260-19
 CH3CN           8.204-16 6.083-16 1.373-16 8.318-19
 CH3CO,acetyl    2.695-14 2.025-14 4.552-15 1.371-17
 C2H4            5.530-16 4.113-16 9.323-17 6.563-19
 CH3CHO,ethanal  8.981-16 6.661-16 1.550-16 9.111-19
 CH3COOH         8.233-16 6.141-16 1.560-16 1.104-18
 OHCH2COOH       2.852-16 2.073-16 4.570-17 1.069-19
 CNC             1.277-15 9.516-16 1.511-16 2.884-20
 OCCN            1.009-11 8.034-12 2.164-12 5.984-15
 C2N2            1.248-13 9.700-14 2.422-14 8.902-17
 C2O             5.278-11 4.334-11 1.268-11 4.027-14
 C3O2            1.397-13 1.097-13 3.037-14 1.608-16
 *H              1.4621-2 1.4488-2 1.1577-2 2.5448-3
 HCN             5.7978-7 5.1394-7 2.6373-7 2.0568-8
 HCO             7.3117-6 6.6182-6 3.5759-6 1.8516-7
 HCCO            8.199-12 6.571-12 1.827-12 6.917-15
 HNC             1.3978-7 1.2195-7 5.5691-8 2.2215-9
 HNCO            8.3351-7 7.4412-7 4.2101-7 4.0783-8
 HNO             1.3505-5 1.2324-5 6.5414-6 1.4819-7
 HNO2            2.1147-6 1.9094-6 9.8028-7 1.2656-8
 HNO3            3.445-10 2.967-10 1.129-10 1.921-13
 HO2             4.6089-5 4.2968-5 2.4095-5 3.6219-7
 *H2             7.3746-2 7.3444-2 6.9243-2 6.1613-2
 HCHO,formaldehy 3.0744-7 2.7368-7 1.4904-7 1.3178-8
 HCOOH           1.4384-6 1.2886-6 7.6985-7 8.4229-8
 H2O             3.7673-1 3.7774-1 3.9181-1 4.2963-1
 H2O2            1.0603-5 9.7233-6 5.4963-6 1.3827-7
 *N              1.0345-5 9.6173-6 4.9004-6 7.3356-8
 NCO             1.4931-7 1.3178-7 6.0264-8 1.0872-9
 *NH             7.0705-6 6.4250-6 3.1528-6 6.0570-8
 NH2             5.4190-6 4.8718-6 2.5155-6 1.0421-7
 NH3             5.9975-6 5.4286-6 3.3521-6 6.1928-7
 NH2OH           1.040 -8 8.829 -9 3.582 -9 4.504-11
 *NO             9.4146-3 9.1445-3 6.7207-3 5.6842-4
 NO2             7.9877-6 7.4094-6 4.0740-6 4.8363-8
 NO3             7.260-11 6.266-11 2.128-11 1.177-14
 *N2             3.1914-1 3.1950-1 3.2392-1 3.3630-1
 N2O             3.5813-6 3.2948-6 1.8855-6 5.5539-8
 NCN             4.594-12 3.697-12 9.525-13 1.301-15
 N2H2            1.997 -9 1.682 -9 6.240-10 5.920-12
 NH2NO2          8.702-14 6.915-14 1.839-14 1.341-17
 N2H4            5.478-13 4.271-13 1.166-13 4.799-16
 N2O3            8.433-12 6.861-12 1.752-12 2.723-16
 N2O4            2.293-16 1.785-16 3.467-17 8.344-22
 N3              2.910-10 2.455-10 8.222-11 2.274-13
 N3H             1.829-10 1.515-10 5.057-11 2.213-13
 *O              3.8832-3 3.8065-3 2.5863-3 1.0063-4
 *OH             3.6077-2 3.5481-2 2.8081-2 4.1077-3
 *O2             7.6432-3 7.5531-3 5.6997-3 2.8742-4
 O3              2.338 -8 2.073 -8 7.474 -9 4.813-12

  * THERMODYNAMIC PROPERTIES FITTED TO 20000.K

              THEORETICAL ROCKET PERFORMANCE ASSUMING EQUILIBRIUM

            COMPOSITION DURING EXPANSION FROM FINITE AREA COMBUSTOR

 Pin =  1469.6 PSIA
 Ac/At =  2.0000      Pinj/Pinf =  1.052384
 CASE = test___________

             REACTANT                       MOLES         ENERGY      TEMP
                                                         KJ/KG-MOL      K
 FUEL        CH6N2(L),MMH               100.0000000     54200.000    298.150
 OXIDANT     N2O4                       100.0000000     11257.595    300.000

 O/F=    1.92031  %FUEL= 34.242916  R,EQ.RATIO= 1.300000  PHI,EQ.RATIO= 1.300000

                 INJECTOR  COMB END  THROAT     EXIT
 Pinj/P            1.0000   1.1137   1.8372   15.574
 P, BAR            101.33   90.979   55.153   6.5061
 T, K             3420.24  3393.44  3200.02  2360.09
 RHO, KG/CU M    7.8006e0 7.0639e0 4.5805e0 7.4712-1
 H, KJ/KG          483.30   410.06  -213.42 -2426.46
 U, KJ/KG         -815.64  -877.87 -1417.50 -3297.29
 G, KJ/KG        -38766.2 -38597.7 -36997.8 -29555.8
 S, KJ/(KG)(K)    11.4757  11.4951  11.4951  11.4951

 M, (1/n)          21.893   21.907   22.097   22.534
 (dLV/dLP)t      -1.01584 -1.01555 -1.01130 -1.00079
 (dLV/dLT)p        1.2981   1.2950   1.2277   1.0208
 Cp, KJ/(KG)(K)    4.2799   4.2699   3.8533   2.2279
 GAMMAs            1.1543   1.1541   1.1573   1.2074
 SON VEL,M/SEC     1224.5   1219.2   1180.4   1025.4
 MACH NUMBER        0.000    0.314    1.000    2.353

 PERFORMANCE PARAMETERS

 Ae/At                      2.0000   1.0000   3.0000
 CSTAR, M/SEC               1780.7   1780.7   1780.7
 CF                         0.2149   0.6629   1.3547
 Ivac, M/SEC                3748.0   2200.5   2773.4
 Isp, M/SEC                  382.7   1180.4   2412.4

 MOLE FRACTIONS

 *C              2.380-10 2.006-10 5.208-11 1.760-14
 *CH             1.832-10 1.512-10 3.920-11 2.396-14
 CH2             5.887-10 4.882-10 1.538-10 5.633-13
 CH3             1.658 -9 1.392 -9 5.674-10 1.911-11
 CH2OH           4.751-10 3.916-10 1.416-10 1.576-12
 CH3O            1.440-10 1.170-10 3.793-11 2.257-13
 CH4             7.900-10 6.635-10 3.194-10 6.286-11
 CH3OH           5.658-11 4.638-11 1.891-11 8.491-13
 CH3OOH          3.951-15 2.973-15 6.399-16 3.827-19
 *CN             2.293 -8 1.981 -8 7.389 -9 3.881-11
 CNN             1.278-13 9.881-14 1.843-14 2.071-18
 *CO             1.1118-1 1.1089-1 1.0812-1 9.7004-2
 *CO2            5.1524-2 5.1913-2 5.6110-2 7.0479-2
 COOH            6.1275-6 5.5613-6 3.1496-6 1.2640-7
 *C2             3.432-15 2.594-15 3.931-16 1.869-20
 C2H             1.680-13 1.291-13 2.602-14 1.371-17
 C2H2,acetylene  3.645-12 2.910-12 9.255-13 1.564-14
 C2H2,vinylidene 2.671-14 2.034-14 4.490-15 7.378-18
 CH2CO,ketene    4.220-11 3.414-11 1.233-11 3.206-13
 O(CH)2O         6.152-13 4.864-13 1.510-13 1.096-15
 HO(CO)2OH       1.856-13 1.481-13 5.197-14 4.299-16
 C2H3,vinyl      3.879-15 2.882-15 6.192-16 1.606-18
 CH3CN           3.174-15 2.376-15 6.412-16 1.153-17
 CH3CO,acetyl    7.192-14 5.434-14 1.362-14 6.815-17
 C2H4            2.496-15 1.877-15 5.192-16 1.225-17
 CH3CHO,ethanal  2.954-15 2.210-15 6.021-16 9.204-18
 CH3COOH         2.001-15 1.502-15 4.319-16 6.722-18
 OHCH2COOH       4.867-16 3.549-16 8.334-17 2.724-19
 CNC             2.498-15 1.860-15 2.963-16 3.125-20
 OCCN            1.608-11 1.280-11 3.514-12 7.863-15
 C2N2            2.832-13 2.209-13 5.979-14 2.926-16
 C2O             8.155-11 6.694-11 1.965-11 4.242-14
 C3O2            2.728-13 2.151-13 6.412-14 4.541-16
 *H              1.5260-2 1.5088-2 1.1658-2 1.5975-3
 HCN             1.0173-6 9.0478-7 4.9371-7 5.0804-8
 HCO             8.9608-6 8.1070-6 4.3691-6 1.7691-7
 HCCO            1.533-11 1.231-11 3.572-12 1.285-14
 HNC             2.3906-7 2.0907-7 1.0017-7 4.5306-9
 HNCO            1.0830-6 9.6817-7 5.6328-7 6.0845-8
 HNO             9.7950-6 8.8807-6 4.2692-6 3.6490-8
 HNO2            1.1037-6 9.8720-7 4.3700-7 1.4979-9
 HNO3            1.220-10 1.035-10 3.141-11 7.300-15
 HO2             2.3368-5 2.1563-5 1.0272-5 3.4320-8
 *H2             9.7654-2 9.7423-2 9.4637-2 9.6272-2
 HCHO,formaldehy 4.6164-7 4.1191-7 2.3429-7 2.4751-8
 HCOOH           1.5973-6 1.4315-6 8.6375-7 9.6100-8
 H2O             3.6920-1 3.7013-1 3.8248-1 4.0473-1
 H2O2            6.5881-6 5.9964-6 3.0141-6 2.5485-8
 *N              8.3911-6 7.7466-6 3.5542-6 1.6633-8
 NCO             1.513 -7 1.332 -7 5.844 -8 5.994-10
 *NH             6.9577-6 6.2940-6 2.8956-6 2.4725-8
 NH2             6.5963-6 5.9219-6 3.0161-6 8.9064-8
 NH3             9.2889-6 8.4306-6 5.4817-6 1.3616-6
 NH2OH           1.064 -8 9.004 -9 3.509 -9 2.655-11
 *NO             5.9993-3 5.7878-3 3.8182-3 1.1920-4
 NO2             3.4599-6 3.1723-6 1.4494-6 3.3187-9
 NO3             2.050-11 1.737-11 4.438-12 1.931-16
 *N2             3.1616-1 3.1647-1 3.2024-1 3.2846-1
 N2O             2.2666-6 2.0703-6 1.0600-6 1.1306-8
 NCN             5.943-12 4.768-12 1.183-12 7.910-16
 N2H2            2.372 -9 1.992 -9 7.207-10 4.405-12
 NH2NO2          5.044-14 3.967-14 9.059-15 1.557-18
 N2H4            9.101-13 7.099-13 1.993-13 7.909-16
 N2O3            2.347-12 1.874-12 3.573-13 4.065-18
 N3              2.371-10 1.985-10 6.000-11 5.423-14
 N3H             1.821-10 1.502-10 4.729-11 1.012-13
 *O              2.3168-3 2.2511-3 1.3276-3 1.3059-5
 *OH             2.7233-2 2.6650-2 1.9479-2 1.2995-3
 *O2             3.3820-3 3.3066-3 2.0965-3 2.2788-5
 O3              6.362 -9 5.538 -9 1.480 -9 6.525-14

  * THERMODYNAMIC PROPERTIES FITTED TO 20000.K

              THEORETICAL ROCKET PERFORMANCE ASSUMING EQUILIBRIUM

            COMPOSITION DURING EXPANSION FROM FINITE AREA COMBUSTOR

 Pin =  1469.6 PSIA
 Ac/At =  2.0000      Pinj/Pinf =  1.052778
 CASE = test___________

             REACTANT                       MOLES         ENERGY      TEMP
                                                         KJ/KG-MOL      K
 FUEL        CH6N2(L),MMH               100.0000000     54200.000    298.150
 OXIDANT     N2O4                       100.0000000     11257.595    300.000

 O/F=    1.78315  %FUEL= 35.930551  R,EQ.RATIO= 1.400000  PHI,EQ.RATIO= 1.400000

                 INJECTOR  COMB END  THROAT     EXIT
 Pinj/P            1.0000   1.1146   1.8470   16.062
 P, BAR            101.33   90.905   54.858   6.3084
 T, K             3357.46  3329.70  3119.44  2216.38
 RHO, KG/CU M    7.7283e0 6.9953e0 4.5386e0 7.4438-1
 H, KJ/KG          501.09   426.61  -206.65 -2422.27
 U, KJ/KG         -810.01  -872.91 -1415.36 -3269.74
 G, KJ/KG        -38576.2 -38394.5 -36576.3 -28263.1
 S, KJ/(KG)(K)    11.6389  11.6590  11.6590  11.6590

 M, (1/n)          21.292   21.304   21.458   21.745
 (dLV/dLP)t      -1.01151 -1.01122 -1.00741 -1.00034
 (dLV/dLT)p        1.2186   1.2149   1.1510   1.0090
 Cp, KJ/(KG)(K)    3.7981   3.7792   3.3439   2.1357
 GAMMAs            1.1644   1.1644   1.1711   1.2224
 SON VEL,M/SEC     1235.6   1230.1   1189.8   1017.8
 MACH NUMBER        0.000    0.314    1.000    2.376

 PERFORMANCE PARAMETERS

 Ae/At                      2.0000   1.0000   3.0000
 CSTAR, M/SEC               1782.4   1782.4   1782.4
 CF                         0.2165   0.6675   1.3566
 Ivac, M/SEC                3753.0   2205.7   2768.5
 Isp, M/SEC                  386.0   1189.7   2418.0

 MOLE FRACTIONS

 *C              2.352-10 1.963-10 4.457-11 4.262-15
 *CH             2.217-10 1.817-10 4.306-11 1.007-14
 CH2             9.267-10 7.669-10 2.371-10 5.493-13
 CH3             3.459 -9 2.914 -9 1.262 -9 4.842-11
 CH2OH           7.098-10 5.850-10 2.134-10 2.042-12
 CH3O            2.080-10 1.688-10 5.443-11 2.535-13
 CH4             2.122 -9 1.797 -9 9.869-10 3.768-10
 CH3OH           1.074-10 8.839-11 3.869-11 2.346-12
 CH3OOH          4.578-15 3.428-15 7.009-16 2.462-19
 *CN             2.713 -8 2.335 -8 8.247 -9 2.341-11
 CNN             1.310-13 1.004-13 1.663-14 6.133-19
 *CO             1.2251-1 1.2230-1 1.2046-1 1.1039-1
 *CO2            4.3515-2 4.3823-2 4.6878-2 5.9194-2
 COOH            5.1990-6 4.7002-6 2.5214-6 6.7862-8
 *C2             5.012-15 3.760-15 5.186-16 7.974-21
 C2H             3.280-13 2.516-13 5.020-14 1.597-17
 C2H2,acetylene  1.002-11 8.048-12 2.821-12 6.450-14
 C2H2,vinylidene 6.569-14 5.012-14 1.159-14 1.694-17
 CH2CO,ketene    8.964-11 7.285-11 2.846-11 9.889-13
 O(CH)2O         9.264-13 7.332-13 2.328-13 1.669-15
 HO(CO)2OH       1.600-13 1.274-13 4.336-14 3.106-16
 C2H3,vinyl      1.159-14 8.651-15 2.029-15 6.218-18
 CH3CN           1.089-14 8.229-15 2.579-15 9.184-17
 CH3CO,acetyl    1.672-13 1.269-13 3.425-14 2.109-16
 C2H4            9.866-15 7.496-15 2.452-15 1.234-16
 CH3CHO,ethanal  8.633-15 6.509-15 2.019-15 5.621-17
 CH3COOH         4.414-15 3.334-15 1.062-15 2.799-17
 OHCH2COOH       7.493-16 5.473-16 1.338-16 5.245-19
 CNC             3.970-15 2.941-15 4.424-16 2.059-20
 OCCN            2.242-11 1.782-11 4.802-12 7.429-15
 C2N2            5.670-13 4.433-13 1.257-13 6.356-16
 C2O             1.083-10 8.864-11 2.504-11 3.150-14
 C3O2            4.714-13 3.724-13 1.158-13 8.796-16
 *H              1.4810-2 1.4589-2 1.0678-2 8.9352-4
 HCN             1.6573-6 1.4776-6 8.4092-7 9.5905-8
 HCO             1.0083-5 9.1039-6 4.7801-6 1.4043-7
 HCCN            1.752-16 1.253-16 1.715-17 8.275-22
 HCCO            2.486-11 1.995-11 5.812-12 1.618-14
 HNC             3.7425-7 3.2767-7 1.6082-7 6.9688-9
 HNCO            1.3366-6 1.1957-6 7.0625-7 7.8284-8
 HNO             6.5372-6 5.8759-6 2.4979-6 8.8577-9
 HNO2            5.337 -7 4.717 -7 1.760 -7 1.938-10
 HNO3            3.901-11 3.252-11 7.622-12 3.287-16
 HO2             1.0786-5 9.8226-6 3.8647-6 3.4780-9
 *H2             1.2456-1 1.2445-1 1.2347-1 1.3166-1
 HCHO,formaldehy 6.4683-7 5.7798-7 3.3755-7 3.7476-8
 HCOOH           1.6924-6 1.5163-6 9.1443-7 1.0008-7
 H2O             3.5648-1 3.5726-1 3.6699-1 3.7644-1
 H2O2            3.7869-6 3.4134-6 1.4923-6 4.8631-9
 *N              6.0705-6 5.5496-6 2.2141-6 3.4101-9
 NCO             1.398 -7 1.224 -7 5.021 -8 2.881-10
 *NH             6.1715-6 5.5447-6 2.3195-6 8.7780-9
 NH2             7.3938-6 6.6185-6 3.2502-6 6.4428-8
 NH3             1.3746-5 1.2506-5 8.4768-6 2.5000-6
 NH2OH           9.988 -9 8.413 -9 3.079 -9 1.403-11
 *NO             3.6045-3 3.4475-3 2.0045-3 2.6199-5
 NO2             1.379 -6 1.246 -6 4.609 -7 2.590-10
 NO3             5.076-12 4.207-12 7.757-13 3.832-18
 *N2             3.1249-1 3.1274-1 3.1575-1 3.2098-1
 N2O             1.3497-6 1.2216-6 5.4921-7 2.4273-9
 NCN             6.650-12 5.302-12 1.215-12 3.639-16
 N2H2            2.563 -9 2.144 -9 7.369-10 2.782-12
 NH2NO2          2.611-14 2.026-14 3.845-15 1.847-19
 N2H4            1.366-12 1.065-12 2.996-13 9.976-16
 N2O3            5.692-13 4.440-13 6.051-14 7.339-20
 N3              1.733-10 1.436-10 3.787-11 1.188-14
 N3H             1.651-10 1.352-10 3.907-11 4.110-14
 *O              1.2550-3 1.2053-3 5.9898-4 1.7128-6
 *OH             1.9303-2 1.8765-2 1.2436-2 4.0757-4
 *O2             1.3913-3 1.3423-3 6.9891-4 2.0608-6
 O3              1.488 -9 1.265 -9 2.397-10 1.057-15

  * THERMODYNAMIC PROPERTIES FITTED TO 20000.K

              THEORETICAL ROCKET PERFORMANCE ASSUMING EQUILIBRIUM

            COMPOSITION DURING EXPANSION FROM FINITE AREA COMBUSTOR

 Pin =  1469.6 PSIA
 Ac/At =  2.0000      Pinj/Pinf =  1.053194
 CASE = test___________

             REACTANT                       MOLES         ENERGY      TEMP
                                                         KJ/KG-MOL      K
 FUEL        CH6N2(L),MMH               100.0000000     54200.000    298.150
 OXIDANT     N2O4                       100.0000000     11257.595    300.000

 O/F=    1.66427  %FUEL= 37.533728  R,EQ.RATIO= 1.500000  PHI,EQ.RATIO= 1.500000

                 INJECTOR  COMB END  THROAT     EXIT
 Pinj/P            1.0000   1.1156   1.8571   16.456
 P, BAR            101.33   90.827   54.562   6.1572
 T, K             3279.69  3250.97  3025.02  2087.87
 RHO, KG/CU M    7.6981e0 6.9648e0 4.5226e0 7.4612-1
 H, KJ/KG          517.98   442.62  -196.95 -2400.57
 U, KJ/KG         -798.26  -861.46 -1403.37 -3225.80
 G, KJ/KG        -38141.7 -37946.1 -35917.7 -27055.0
 S, KJ/(KG)(K)    11.7876  11.8084  11.8084  11.8084

 M, (1/n)          20.717   20.727   20.848   21.036
 (dLV/dLP)t      -1.00819 -1.00794 -1.00484 -1.00016
 (dLV/dLT)p        1.1570   1.1533   1.0997   1.0043
 Cp, KJ/(KG)(K)    3.4092   3.3871   2.9935   2.1061
 GAMMAs            1.1756   1.1759   1.1852   1.2332
 SON VEL,M/SEC     1243.9   1238.3   1195.8   1008.8
 MACH NUMBER        0.000    0.314    1.000    2.395

 PERFORMANCE PARAMETERS

 Ae/At                      2.0000   1.0000   3.0000
 CSTAR, M/SEC               1779.0   1779.0   1779.0
 CF                         0.2182   0.6722   1.3581
 Ivac, M/SEC                3747.2   2204.7   2757.6
 Isp, M/SEC                  388.2   1195.8   2416.0

 MOLE FRACTIONS

 *C              1.976-10 1.628-10 3.123-11 8.931-16
 *CH             2.291-10 1.860-10 3.894-11 3.540-15
 CH2             1.274 -9 1.050 -9 3.085-10 4.340-13
 CH3             6.483 -9 5.473 -9 2.452 -9 9.659-11
 CH2OH           9.614-10 7.910-10 2.847-10 2.245-12
 CH3O            2.697-10 2.182-10 6.843-11 2.421-13
 CH4             5.2285-9 4.4623-9 2.7322-9 1.7346-9
 CH3OH           1.877-10 1.550-10 7.143-11 5.343-12
 CH3OOH          4.707-15 3.502-15 6.646-16 1.399-19
 *CN             2.880 -8 2.463 -8 8.045 -9 1.239-11
 CNN             1.157-13 8.756-14 1.248-14 1.592-19
 *CO             1.3181-1 1.3164-1 1.3029-1 1.1988-1
 *CO2            3.6948-2 3.7197-2 3.9541-2 5.1500-2
 COOH            4.2055-6 3.7840-6 1.9096-6 3.6085-8
 *C2             5.950-15 4.414-15 5.285-16 2.617-21
 C2H             5.368-13 4.098-13 7.762-14 1.394-17
 C2H2,acetylene  2.419-11 1.950-11 7.284-12 1.942-13
 C2H2,vinylidene 1.372-13 1.047-13 2.433-14 2.815-17
 CH2CO,ketene    1.724-10 1.406-10 5.795-11 2.411-12
 O(CH)2O         1.271-12 1.006-12 3.202-13 2.169-15
 HO(CO)2OH       1.323-13 1.050-13 3.457-14 2.250-16
 C2H3,vinyl      2.946-14 2.206-14 5.421-15 1.686-17
 CH3CN           3.317-14 2.526-14 8.903-15 5.200-16
 CH3CO,acetyl    3.425-13 2.605-13 7.344-14 4.970-16
 C2H4            3.414-14 2.617-14 9.760-15 8.468-16
 CH3CHO,ethanal  2.250-14 1.707-14 5.859-15 2.529-16
 CH3COOH         8.902-15 6.760-15 2.336-15 9.321-17
 OHCH2COOH       1.057-15 7.723-16 1.935-16 8.720-19
 CNC             5.261-15 3.865-15 5.267-16 1.055-20
 OCCN            2.793-11 2.211-11 5.704-12 5.954-15
 C2N2            1.015-12 7.938-13 2.293-13 1.095-15
 C2O             1.266-10 1.031-10 2.722-11 1.971-14
 C3O2            7.346-13 5.809-13 1.839-13 1.397-15
 *H              1.3496-2 1.3230-2 9.0579-3 4.7452-4
 HCN             2.5186-6 2.2488-6 1.3115-6 1.5470-7
 HCO             1.0557-5 9.4998-6 4.7861-6 1.0186-7
 HCCN            2.722-16 1.935-16 2.462-17 5.959-22
 HCCO            3.561-11 2.851-11 8.103-12 1.658-14
 HNC             5.4016-7 4.7290-7 2.3305-7 9.1349-9
 HNCO            1.5785-6 1.4123-6 8.3898-7 9.3115-8
 HNO             4.0915-6 3.6410-6 1.3573-6 2.2137-9
 HNO2            2.450 -7 2.136 -7 6.696 -8 2.780-11
 HNO3            1.168-11 9.544-12 1.724-12 1.765-17
 HO2             4.657 -6 4.179 -6 1.349 -6 3.875-10
 *H2             1.5301-1 1.5302-1 1.5367-1 1.6558-1
 HCHO,formaldehy 8.5159-7 7.6143-7 4.5021-7 5.0250-8
 HCOOH           1.7280-6 1.5471-6 9.2741-7 1.0016-7
 H2O             3.4001-1 3.4061-1 3.4755-1 3.4824-1
 H2O2            2.056 -6 1.833 -6 6.933 -7 9.871-10
 *N              4.000 -6 3.614 -6 1.232 -6 6.863-10
 NCO             1.200 -7 1.044 -7 3.943 -8 1.318-10
 *NH             5.0111-6 4.4636-6 1.6688-6 2.9539-9
 NH2             7.6943-6 6.8589-6 3.1978-6 4.2790-8
 NH3             1.9400-5 1.7684-5 1.2356-5 4.0925-6
 NH2OH           8.716 -9 7.298 -9 2.478 -9 7.112-12
 *NO             2.0782-3 1.9684-3 1.0046-3 6.1383-6
 NO2             5.207 -7 4.630 -7 1.383 -7 2.318-11
 NO3             1.153-12 9.319-13 1.234-13 9.351-20
 *N2             3.0837-1 3.0857-1 3.1087-1 3.1419-1
 N2O             7.702 -7 6.900 -7 2.714 -7 5.592-10
 NCN             6.575-12 5.197-12 1.071-12 1.474-16
 N2H2            2.548 -9 2.120 -9 6.812-10 1.628-12
 NH2NO2          1.242-14 9.490-15 1.482-15 2.353-20
 N2H4            1.861-12 1.447-12 3.999-13 1.081-15
 N2O3            1.260-13 9.575-14 9.277-15 1.636-21
 N3              1.159-10 9.491-11 2.150-11 2.584-15
 N3H             1.381-10 1.122-10 2.932-11 1.604-14
 *O              6.3235-4 5.9921-4 2.4845-4 2.3731-7
 *OH             1.3037-2 1.2576-2 7.5077-3 1.3078-4
 *O2             5.4660-4 5.1966-4 2.2186-4 2.1289-7
 O3              3.143-10 2.603-10 3.474-11 2.100-17

  * THERMODYNAMIC PROPERTIES FITTED TO 20000.K

              THEORETICAL ROCKET PERFORMANCE ASSUMING EQUILIBRIUM

            COMPOSITION DURING EXPANSION FROM FINITE AREA COMBUSTOR

 Pin =  1469.6 PSIA
 Ac/At =  2.0000      Pinj/Pinf =  1.053594
 CASE = test___________

             REACTANT                       MOLES         ENERGY      TEMP
                                                         KJ/KG-MOL      K
 FUEL        CH6N2(L),MMH               100.0000000     54200.000    298.150
 OXIDANT     N2O4                       100.0000000     11257.595    300.000

 O/F=    1.56025  %FUEL= 39.058632  R,EQ.RATIO= 1.600000  PHI,EQ.RATIO= 1.600000

                 INJECTOR  COMB END  THROAT     EXIT
 Pinj/P            1.0000   1.1165   1.8663   16.780
 P, BAR            101.33   90.753   54.293   6.0384
 T, K             3192.94  3163.41  2924.86  1973.19
 RHO, KG/CU M    7.7004e0 6.9642e0 4.5268e0 7.5085-1
 H, KJ/KG          534.06   458.16  -184.53 -2367.84
 U, KJ/KG         -781.78  -844.99 -1383.89 -3172.05
 G, KJ/KG        -37535.5 -37327.4 -35120.8 -25936.8
 S, KJ/(KG)(K)    11.9231  11.9446  11.9446  11.9446

 M, (1/n)          20.176   20.184   20.276   20.400
 (dLV/dLP)t      -1.00584 -1.00563 -1.00321 -1.00008
 (dLV/dLT)p        1.1129   1.1096   1.0669   1.0021
 Cp, KJ/(KG)(K)    3.1246   3.1026   2.7668   2.1001
 GAMMAs            1.1869   1.1874   1.1983   1.2419
 SON VEL,M/SEC     1249.7   1243.9   1198.8    999.4
 MACH NUMBER        0.000    0.313    1.000    2.411

 PERFORMANCE PARAMETERS

 Ae/At                      2.0000   1.0000   3.0000
 CSTAR, M/SEC               1772.1   1772.1   1772.1
 CF                         0.2199   0.6765   1.3594
 Ivac, M/SEC                3734.3   2199.3   2742.9
 Isp, M/SEC                  389.6   1198.8   2409.1

 MOLE FRACTIONS

 *C              1.459-10 1.185-10 1.892-11 1.726-16
 *CH             2.084-10 1.672-10 3.041-11 1.121-15
 CH2             1.563 -9 1.281 -9 3.514-10 3.018-13
 CH3             1.105 -8 9.336 -9 4.247 -9 1.659-10
 CH2OH           1.199 -9 9.840-10 3.451-10 2.237-12
 CH3O            3.197-10 2.578-10 7.763-11 2.101-13
 CH4             1.1880-8 1.0209-8 6.8432-9 6.7513-9
 CH3OH           3.052-10 2.527-10 1.209-10 1.080-11
 CH3OOH          4.399-15 3.249-15 5.671-16 7.418-20
 *CN             2.800 -8 2.377 -8 7.096 -9 6.077-12
 CNN             9.067-14 6.770-14 8.195-15 3.843-20
 *CO             1.3931-1 1.3917-1 1.3801-1 1.2685-1
 *CO2            3.1706-2 3.1917-2 3.3874-2 4.6095-2
 COOH            3.2925-6 2.9473-6 1.3993-6 1.9238-8
 *C2             5.968-15 4.368-15 4.434-16 7.366-22
 C2H             7.579-13 5.749-13 1.009-13 1.022-17
 C2H2,acetylene  5.205-11 4.208-11 1.634-11 4.811-13
 C2H2,vinylidene 2.490-13 1.895-13 4.315-14 3.835-17
 CH2CO,ketene    3.044-10 2.488-10 1.064-10 5.096-12
 O(CH)2O         1.619-12 1.279-12 4.040-13 2.575-15
 HO(CO)2OH       1.068-13 8.448-14 2.702-14 1.657-16
 C2H3,vinyl      6.507-14 4.876-14 1.221-14 3.669-17
 CH3CN           9.065-14 6.950-14 2.687-14 2.379-15
 CH3CO,acetyl    6.290-13 4.789-13 1.383-13 9.925-16
 C2H4            1.045-13 8.075-14 3.338-14 4.566-15
 CH3CHO,ethanal  5.292-14 4.039-14 1.500-14 9.425-16
 CH3COOH         1.661-14 1.267-14 4.684-15 2.714-16
 OHCH2COOH       1.389-15 1.016-15 2.586-16 1.337-18
 C2H5            2.323-16 1.660-16 4.365-17 5.794-19
 CNC             6.010-15 4.370-15 5.276-16 4.663-21
 OCCN            3.180-11 2.504-11 6.104-12 4.345-15
 C2N2            1.651-12 1.291-12 3.731-13 1.643-15
 C2O             1.337-10 1.081-10 2.632-11 1.119-14
 C3O2            1.055-12 8.339-13 2.652-13 1.982-15
 *H              1.1689-2 1.1394-2 7.2582-3 2.4464-4
 HCN             3.6025-6 3.2191-6 1.9009-6 2.2653-7
 HCO             1.0437-5 9.3540-6 4.4894-6 7.0214-8
 HCCN            3.619-16 2.550-16 2.947-17 3.622-22
 HCCO            4.608-11 3.676-11 1.003-11 1.506-14
 HNC             7.2720-7 6.3604-7 3.1079-7 1.0861-8
 HNCO            1.7996-6 1.6097-6 9.5684-7 1.0590-7
 HNO             2.447 -6 2.155 -6 7.054 -7 5.681-10
 HNO2            1.091 -7 9.381 -8 2.488 -8 4.306-12
 HNO3            3.373-12 2.701-12 3.811-13 1.078-18
 HO2             1.928 -6 1.703 -6 4.541 -7 4.634-11
 *H2             1.8162-1 1.8174-1 1.8354-1 1.9732-1
 HCHO,formaldehy 1.0641-6 9.5146-7 5.6470-7 6.2645-8
 HCOOH           1.7173-6 1.5361-6 9.1412-7 9.8443-8
 H2O             3.2135-1 3.2177-1 3.2630-1 3.2138-1
 H2O2            1.075 -6 9.478 -7 3.114 -7 2.102-10
 *N              2.454 -6 2.189 -6 6.354 -7 1.376-10
 NCO             9.734 -8 8.408 -8 2.914 -8 5.902-11
 *NH             3.794 -6 3.347 -6 1.111 -6 9.660-10
 NH2             7.5263-6 6.6759-6 2.9329-6 2.6994-8
 NH3             2.6199-5 2.3919-5 1.7084-5 6.2242-6
 NH2OH           7.180 -9 5.971 -9 1.876 -9 3.534-12
 *NO             1.1679-3 1.0950-3 4.9236-4 1.5084-6
 NO2             1.909 -7 1.669 -7 4.062 -8 2.291-12
 NO3             2.496-13 1.965-13 1.895-14 2.652-21
 *N2             3.0406-1 3.0422-1 3.0594-1 3.0806-1
 N2O             4.281 -7 3.795 -7 1.311 -7 1.359-10
 NCN             5.886-12 4.606-12 8.430-13 5.561-17
 N2H2            2.367 -9 1.956 -9 5.840-10 9.121-13
 NH2NO2          5.573-15 4.192-15 5.416-16 3.179-21
 N2H4            2.333-12 1.808-12 4.846-13 1.068-15
 N2O3            2.649-14 1.959-14 1.368-15 4.257-23
 N3              7.247-11 5.861-11 1.137-11 5.642-16
 N3H             1.085-10 8.739-11 2.055-11 6.142-15
 *O              3.0324-4 2.8328-4 9.8192-5 3.4359-8
 *OH             8.5113-3 8.1427-3 4.3823-3 4.2809-5
 *O2             2.0973-4 1.9639-4 6.9366-5 2.4189-8
 O3              6.256-11 5.043-11 4.811-12 4.847-19

  * THERMODYNAMIC PROPERTIES FITTED TO 20000.K

              THEORETICAL ROCKET PERFORMANCE ASSUMING EQUILIBRIUM

            COMPOSITION DURING EXPANSION FROM FINITE AREA COMBUSTOR

 Pin =  1469.6 PSIA
 Ac/At =  2.0000      Pinj/Pinf =  1.053958
 CASE = test___________

             REACTANT                       MOLES         ENERGY      TEMP
                                                         KJ/KG-MOL      K
 FUEL        CH6N2(L),MMH               100.0000000     54200.000    298.150
 OXIDANT     N2O4                       100.0000000     11257.595    300.000

 O/F=    1.46847  %FUEL= 40.510860  R,EQ.RATIO= 1.700000  PHI,EQ.RATIO= 1.700000

                 INJECTOR  COMB END  THROAT     EXIT
 Pinj/P            1.0000   1.1173   1.8744   17.054
 P, BAR            101.33   90.686   54.056   5.9415
 T, K             3101.91  3071.76  2824.01  1870.20
 RHO, KG/CU M    7.7275e0 6.9863e0 4.5460e0 7.5762-1
 H, KJ/KG          549.37   473.22  -169.99 -2328.16
 U, KJ/KG         -761.86  -824.84 -1359.10 -3112.39
 G, KJ/KG        -36818.1 -36599.3 -34252.4 -24899.3
 S, KJ/(KG)(K)    12.0466  12.0688  12.0688  12.0688

 M, (1/n)          19.669   19.676   19.746   19.828
 (dLV/dLP)t      -1.00421 -1.00403 -1.00217 -1.00004
 (dLV/dLT)p        1.0818   1.0791   1.0455   1.0011
 Cp, KJ/(KG)(K)    2.9224   2.9019   2.6203   2.1045
 GAMMAs            1.1977   1.1984   1.2099   1.2494
 SON VEL,M/SEC     1253.2   1247.2   1199.5    989.9
 MACH NUMBER        0.000    0.313    1.000    2.424

 PERFORMANCE PARAMETERS

 Ae/At                      2.0000   1.0000   3.0000
 CSTAR, M/SEC               1763.1   1763.1   1763.1
 CF                         0.2213   0.6803   1.3606
 Ivac, M/SEC                3716.5   2190.8   2725.9
 Isp, M/SEC                  390.2   1199.5   2399.0

 MOLE FRACTIONS

 *C              9.759-11 7.797-11 1.032-11 3.156-17
 *CH             1.714-10 1.358-10 2.133-11 3.310-16
 CH2             1.750 -9 1.424 -9 3.618-10 1.926-13
 CH3             1.739 -8 1.470 -8 6.718 -9 2.581-10
 CH2OH           1.400 -9 1.145 -9 3.891-10 2.089-12
 CH3O            3.531-10 2.835-10 8.159-11 1.713-13
 CH4             2.5168-8 2.1768-8 1.5785-8 2.3537-8
 CH3OH           4.671-10 3.876-10 1.912-10 2.018-11
 CH3OOH          3.822-15 2.800-15 4.489-16 3.767-20
 *CN             2.544 -8 2.142 -8 5.817 -9 2.834-12
 CNN             6.489-14 4.775-14 4.894-15 8.842-21
 *CO             1.4538-1 1.4525-1 1.4412-1 1.3216-1
 *CO2            2.7553-2 2.7741-2 2.9502-2 4.2190-2
 COOH            2.5231-6 2.2468-6 1.0062-6 1.0300-8
 *C2             5.247-15 3.782-15 3.224-16 1.871-22
 C2H             9.509-13 7.156-13 1.150-13 6.687-18
 C2H2,acetylene  1.018-10 8.243-11 3.284-11 1.049-12
 C2H2,vinylidene 4.028-13 3.055-13 6.721-14 4.580-17
 CH2CO,ketene    5.012-10 4.105-10 1.804-10 9.824-12
 O(CH)2O         1.945-12 1.534-12 4.788-13 2.891-15
 HO(CO)2OH       8.520-14 6.721-14 2.100-14 1.244-16
 C2H3,vinyl      1.279-13 9.579-14 2.407-14 6.902-17
 CH3CN           2.259-13 1.742-13 7.274-14 9.476-15
 CH3CO,acetyl    1.057-12 8.051-13 2.354-13 1.781-15
 C2H4            2.883-13 2.242-13 1.010-13 2.102-14
 C2H4O,ethylen-o 1.088-16 7.975-17 2.098-17 1.463-19
 CH3CHO,ethanal  1.143-13 8.764-14 3.480-14 3.108-15
 CH3COOH         2.911-14 2.230-14 8.751-15 7.269-16
 OHCH2COOH       1.732-15 1.267-15 3.271-16 1.956-18
 C2H5            6.403-16 4.598-16 1.288-16 2.291-18
 C2H6            1.658-16 1.215-16 5.246-17 2.608-17
 CNC             6.108-15 4.390-15 4.652-16 1.869-21
 OCCN            3.376-11 2.644-11 6.056-12 2.986-15
 C2N2            2.487-12 1.942-12 5.566-13 2.253-15
 C2O             1.306-10 1.047-10 2.339-11 5.968-15
 C3O2            1.423-12 1.124-12 3.567-13 2.623-15
 *H              9.7324-3 9.4299-3 5.5820-3 1.2356-4
 HCN             4.9021-6 4.3816-6 2.6019-6 3.1135-7
 HCO             9.8757-6 8.8113-6 4.0189-6 4.6830-8
 HCCN            4.252-16 2.967-16 3.079-17 1.968-22
 HCCO            5.505-11 4.370-11 1.136-11 1.264-14
 HNC             9.2508-7 8.0789-7 3.8879-7 1.2110-8
 HNCO            1.9967-6 1.7852-6 1.0596-6 1.1716-7
 HNO             1.420 -6 1.236 -6 3.573 -7 1.484-10
 HNO2            4.777 -8 4.053 -8 9.182 -9 7.026-13
 HNO3            9.594-13 7.529-13 8.418-14 7.185-20
 HO2             7.785 -7 6.771 -7 1.504 -7 5.812-12
 *H2             2.0940-1 2.0960-1 2.1208-1 2.2673-1
 HCHO,formaldehy 1.2751-6 1.1399-6 6.7623-7 7.4524-8
 HCOOH           1.6747-6 1.4967-6 8.8497-7 9.5960-8
 H2O             3.0180-1 3.0207-1 3.0471-1 2.9624-1
 H2O2            5.496 -7 4.788 -7 1.376 -7 4.625-11
 *N              1.429 -6 1.257 -6 3.112 -7 2.746-11
 NCO             7.586 -8 6.503 -8 2.068 -8 2.607-11
 *NH             2.722 -6 2.377 -6 7.009 -7 3.095-10
 NH2             7.0085-6 6.1828-6 2.5531-6 1.6441-8
 NH3             3.4073-5 3.1146-5 2.2633-5 9.0126-6
 NH2OH           5.662 -9 4.677 -9 1.361 -9 1.734-12
 *NO             6.4669-4 6.0008-4 2.3912-4 3.8265-7
 NO2             6.904 -8 5.938 -8 1.191 -8 2.420-13
 NO3             5.277-14 4.049-14 2.891-15 8.327-23
 *N2             2.9977-1 2.9990-1 3.0116-1 3.0254-1
 N2O             2.345 -7 2.056 -7 6.286 -8 3.422-11
 NCN             4.882-12 3.779-12 6.123-13 2.002-17
 N2H2            2.084 -9 1.712 -9 4.742-10 4.968-13
 NH2NO2          2.409-15 1.783-15 1.924-16 4.475-22
 N2H4            2.730-12 2.108-12 5.454-13 9.916-16
 N2O3            5.425-15 3.906-15 2.002-16 1.229-24
 N3              4.318-11 3.445-11 5.743-12 1.235-16
 N3H             8.134-11 6.487-11 1.374-11 2.322-15
 *O              1.4075-4 1.2958-4 3.7773-5 5.1194-9
 *OH             5.4300-3 5.1510-3 2.5078-3 1.4195-5
 *O2             7.9714-5 7.3519-5 2.1713-5 2.9296-9
 O3              1.208-11 9.479-12 6.587-13 1.236-20

  * THERMODYNAMIC PROPERTIES FITTED TO 20000.K

              THEORETICAL ROCKET PERFORMANCE ASSUMING EQUILIBRIUM

            COMPOSITION DURING EXPANSION FROM FINITE AREA COMBUSTOR

 Pin =  1469.6 PSIA
 Ac/At =  2.0000      Pinj/Pinf =  1.054285
 CASE = test___________

             REACTANT                       MOLES         ENERGY      TEMP
                                                         KJ/KG-MOL      K
 FUEL        CH6N2(L),MMH               100.0000000     54200.000    298.150
 OXIDANT     N2O4                       100.0000000     11257.595    300.000

 O/F=    1.38689  %FUEL= 41.895486  R,EQ.RATIO= 1.800000  PHI,EQ.RATIO= 1.800000

                 INJECTOR  COMB END  THROAT     EXIT
 Pinj/P            1.0000   1.1181   1.8816   17.291
 P, BAR            101.33   90.625   53.850   5.8600
 T, K             3009.79  2979.23  2725.26  1777.08
 RHO, KG/CU M    7.7735e0 7.0258e0 4.5764e0 7.6588-1
 H, KJ/KG          563.96   487.81  -153.93 -2284.02
 U, KJ/KG         -739.51  -802.08 -1330.61 -3049.15
 G, KJ/KG        -36033.2 -35806.0 -33353.7 -23932.8
 S, KJ/(KG)(K)    12.1594  12.1823  12.1823  12.1823

 M, (1/n)          19.199   19.204   19.257   19.311
 (dLV/dLP)t      -1.00305 -1.00291 -1.00148 -1.00003
 (dLV/dLT)p        1.0598   1.0575   1.0314   1.0006
 Cp, KJ/(KG)(K)    2.7789   2.7603   2.5244   2.1139
 GAMMAs            1.2077   1.2085   1.2202   1.2561
 SON VEL,M/SEC     1254.7   1248.5   1198.2    980.3
 MACH NUMBER        0.000    0.313    1.000    2.434

 PERFORMANCE PARAMETERS

 Ae/At                      2.0000   1.0000   3.0000
 CSTAR, M/SEC               1752.6   1752.6   1752.6
 CF                         0.2227   0.6837   1.3617
 Ivac, M/SEC                3695.6   2180.3   2707.2
 Isp, M/SEC                  390.2   1198.2   2386.6

 MOLE FRACTIONS

 *C              6.049-11 4.753-11 5.222-12 5.532-18
 *CH             1.305-10 1.020-10 1.383-11 9.269-17
 CH2             1.822 -9 1.472 -9 3.452-10 1.156-13
 CH3             2.568 -8 2.169 -8 9.910 -9 3.744-10
 CH2OH           1.551 -9 1.265 -9 4.157-10 1.865-12
 CH3O            3.692-10 2.950-10 8.105-11 1.338-13
 CH4             5.0350-8 4.3814-8 3.4145-8 7.6131-8
 CH3OH           6.814-10 5.664-10 2.871-10 3.580-11
 CH3OOH          3.142-15 2.283-15 3.369-16 1.857-20
 *CN             2.192 -8 1.830 -8 4.519 -9 1.273-12
 CNN             4.333-14 3.141-14 2.729-15 1.962-21
 *CO             1.5032-1 1.5019-1 1.4901-1 1.3630-1
 *CO2            2.4244-2 2.4419-2 2.6087-2 3.9303-2
 COOH            1.9068-6 1.6893-6 7.1576-7 5.5353-9
 *C2             4.164-15 2.954-15 2.110-16 4.406-23
 C2H             1.087-12 8.111-13 1.188-13 4.031-18
 C2H2,acetylene  1.843-10 1.494-10 6.059-11 2.094-12
 C2H2,vinylidene 5.946-13 4.492-13 9.480-14 4.988-17
 CH2CO,ketene    7.808-10 6.405-10 2.879-10 1.780-11
 O(CH)2O         2.238-12 1.762-12 5.426-13 3.130-15
 HO(CO)2OH       6.771-14 5.329-14 1.635-14 9.499-17
 C2H3,vinyl      2.287-13 1.712-13 4.284-14 1.173-16
 CH3CN           5.221-13 4.048-13 1.810-13 3.434-14
 CH3CO,acetyl    1.655-12 1.261-12 3.717-13 2.970-15
 C2H4            7.301-13 5.712-13 2.773-13 8.682-14
 C2H4O,ethylen-o 1.902-16 1.395-16 3.753-17 3.008-19
 CH3CHO,ethanal  2.303-13 1.775-13 7.481-14 9.439-15
 CH3COOH         4.856-14 3.736-14 1.551-14 1.844-15
 OHCH2COOH       2.077-15 1.520-15 3.983-16 2.782-18
 C2H5            1.593-15 1.149-15 3.391-16 8.032-18
 C2H6            5.544-16 4.104-16 1.994-16 1.915-16
 CNC             5.668-15 4.025-15 3.733-16 6.988-22
 OCCN            3.400-11 2.646-11 5.689-12 1.969-15
 C2N2            3.528-12 2.751-12 7.778-13 2.906-15
 C2O             1.201-10 9.555-11 1.956-11 3.044-15
 C3H3,2-propynl  1.136-16 7.882-17 1.640-17 4.513-20
 C3O2            1.829-12 1.444-12 4.562-13 3.317-15
 *H              7.8613-3 7.5691-3 4.1664-3 6.1423-5
 HCN             6.4097-6 5.7293-6 3.4096-6 4.0963-7
 HCO             9.0384-6 8.0266-6 3.4787-6 3.0514-8
 HCCN            4.534-16 3.131-16 2.909-17 9.875-23
 HCCO            6.179-11 4.882-11 1.206-11 1.005-14
 HNC             1.1251-6 9.8073-7 4.6339-7 1.2911-8
 HNCO            2.1705-6 1.9397-6 1.1490-6 1.2732-7
 HNO             8.065 -7 6.950 -7 1.782 -7 3.921-11
 HNO2            2.076 -8 1.738 -8 3.393 -9 1.187-13
 HNO3            2.716-13 2.089-13 1.876-14 5.083-21
 HO2             3.099 -7 2.653 -7 4.954 -8 7.516-13
 *H2             2.3579-1 2.3603-1 2.3883-1 2.5389-1
 HCHO,formaldehy 1.4791-6 1.3217-6 7.8242-7 8.5877-8
 HCOOH           1.6125-6 1.4399-6 8.4730-7 9.3218-8
 H2O             2.8224-1 2.8239-1 2.8366-1 2.7288-1
 H2O2            2.769 -7 2.385 -7 6.039 -8 1.039-11
 *N              8.002 -7 6.944 -7 1.471 -7 5.449-12
 NCO             5.740 -8 4.883 -8 1.428 -8 1.141-11
 *NH             1.876 -6 1.621 -6 4.250 -7 9.752-11
 NH2             6.2804-6 5.5093-6 2.1383-6 9.7561-9
 NH3             4.2971-5 3.9324-5 2.9005-5 1.2613-5
 NH2OH           4.324 -9 3.546 -9 9.587-10 8.433-13
 *NO             3.5509-4 3.2613-4 1.1577-4 9.9093-8
 NO2             2.485 -8 2.102 -8 3.509 -9 2.673-14
 NO3             1.105-14 8.264-15 4.436-16 2.797-24
 *N2             2.9561-1 2.9571-1 2.9664-1 2.9755-1
 N2O             1.274 -7 1.105 -7 3.008 -8 8.834-12
 NCN             3.818-12 2.923-12 4.194-13 6.961-18
 N2H2            1.763 -9 1.438 -9 3.702-10 2.652-13
 NH2NO2          1.017-15 7.410-16 6.737-17 6.478-23
 N2H4            3.025-12 2.327-12 5.806-13 8.814-16
 N2O3            1.099-15 7.705-16 2.945-17 3.809-26
 N3              2.482-11 1.954-11 2.810-12 2.700-17
 N3H             5.881-11 4.647-11 8.889-12 8.690-16
 *O              6.392 -5 5.798 -5 1.430 -5 7.760-10
 *OH             3.4101-3 3.2074-3 1.4179-3 4.7416-6
 *O2             3.024 -5 2.747 -5 6.845 -6 3.701-10
 O3              2.302-12 1.758-12 9.045-14 3.363-22

  * THERMODYNAMIC PROPERTIES FITTED TO 20000.K

              THEORETICAL ROCKET PERFORMANCE ASSUMING EQUILIBRIUM

            COMPOSITION DURING EXPANSION FROM FINITE AREA COMBUSTOR

 Pin =  1469.6 PSIA
 Ac/At =  2.0000      Pinj/Pinf =  1.054576
 CASE = test___________

             REACTANT                       MOLES         ENERGY      TEMP
                                                         KJ/KG-MOL      K
 FUEL        CH6N2(L),MMH               100.0000000     54200.000    298.150
 OXIDANT     N2O4                       100.0000000     11257.595    300.000

 O/F=    1.31390  %FUEL= 43.217123  R,EQ.RATIO= 1.900000  PHI,EQ.RATIO= 1.900000

                 INJECTOR  COMB END  THROAT     EXIT
 Pinj/P            1.0000   1.1187   1.8880   17.503
 P, BAR            101.33   90.571   53.669   5.7891
 T, K             2918.59  2887.79  2630.04  1692.31
 RHO, KG/CU M    7.8342e0 7.0789e0 4.6155e0 7.7521-1
 H, KJ/KG          577.89   501.94  -136.81 -2237.11
 U, KJ/KG         -715.48  -777.51 -1299.61 -2983.89
 G, KJ/KG        -35211.1 -34977.4 -32449.4 -23028.8
 S, KJ/(KG)(K)    12.2624  12.2860  12.2860  12.2860

 M, (1/n)          18.762   18.766   18.806   18.842
 (dLV/dLP)t      -1.00224 -1.00212 -1.00103 -1.00003
 (dLV/dLT)p        1.0440   1.0422   1.0218   1.0003
 Cp, KJ/(KG)(K)    2.6765   2.6596   2.4613   2.1257
 GAMMAs            1.2169   1.2177   1.2293   1.2622
 SON VEL,M/SEC     1254.6   1248.2   1195.6    970.9
 MACH NUMBER        0.000    0.312    1.000    2.444

 PERFORMANCE PARAMETERS

 Ae/At                      2.0000   1.0000   3.0000
 CSTAR, M/SEC               1741.2   1741.2   1741.2
 CF                         0.2238   0.6867   1.3627
 Ivac, M/SEC                3672.4   2168.2   2687.5
 Isp, M/SEC                  389.8   1195.6   2372.8

 MOLE FRACTIONS

 *C              3.535-11 2.731-11 2.497-12 9.349-19
 *CH             9.350-11 7.213-11 8.452-12 2.488-17
 CH2             1.792 -9 1.437 -9 3.109-10 6.614-14
 CH3             3.602 -8 3.042 -8 1.386 -8 5.164-10
 CH2OH           1.651 -9 1.342 -9 4.265-10 1.610-12
 CH3O            3.698-10 2.942-10 7.723-11 1.012-13
 CH4             9.6223-8 8.4235-8 7.0303-8 2.3371-7
 CH3OH           9.569-10 7.969-10 4.146-10 6.117-11
 CH3OOH          2.478-15 1.786-15 2.434-16 8.941-21
 *CN             1.814 -8 1.501 -8 3.373 -9 5.548-13
 CNN             2.743-14 1.958-14 1.447-15 4.223-22
 *CO             1.5440-1 1.5427-1 1.5302-1 1.3960-1
 *CO2            2.1578-2 2.1745-2 2.3375-2 3.7139-2
 COOH            1.4280-6 1.2587-6 5.0604-7 2.9810-9
 *C2             3.050-15 2.129-15 1.275-16 9.770-24
 C2H             1.155-12 8.545-13 1.140-13 2.284-18
 C2H2,acetylene  3.140-10 2.548-10 1.048-10 3.924-12
 C2H2,vinylidene 8.164-13 6.140-13 1.240-13 5.072-17
 CH2CO,ketene    1.165 -9 9.570-10 4.391-10 3.086-11
 O(CH)2O         2.491-12 1.958-12 5.953-13 3.304-15
 HO(CO)2OH       5.383-14 4.229-14 1.280-14 7.364-17
 C2H3,vinyl      3.798-13 2.839-13 7.048-14 1.853-16
 CH3CN           1.137-12 8.860-13 4.223-13 1.165-13
 CH3CO,acetyl    2.453-12 1.869-12 5.545-13 4.705-15
 C2H4            1.726-12 1.359-12 7.075-13 3.323-13
 C2H4O,ethylen-o 3.126-16 2.296-16 6.299-17 5.831-19
 CH3CHO,ethanal  4.396-13 3.403-13 1.518-13 2.707-14
 CH3COOH         7.798-14 6.025-14 2.643-14 4.515-15
 OHCH2COOH       2.421-15 1.772-15 4.723-16 3.888-18
 C2H5            3.653-15 2.643-15 8.188-16 2.584-17
 C2H6            1.714-15 1.281-15 6.960-16 1.286-15
 CNC             4.900-15 3.436-15 2.791-16 2.473-22
[...]
 HCN             3.0435-5 2.7185-5 1.6315-5 2.1703-6
 HCO             2.041 -6 1.738 -6 4.955 -7 3.972-10
 HCCN            1.013-16 6.362-17 2.327-18 4.128-26
 HCCO            4.746-11 3.586-11 5.792-12 4.517-16
 HNC             2.4851-6 2.1284-6 8.5495-7 9.8316-9
 HNCO            3.1150-6 2.7791-6 1.6489-6 2.0039-7
 HNO             3.468 -9 2.722 -9 2.721-10 2.690-16
 HNO2            1.095-11 8.160-12 4.967-13 2.325-20
 HO2             6.265-11 4.680-11 2.185-12 1.128-20
 *H2             4.0361-1 4.0382-1 4.0580-1 4.2252-1
 HCHO,formaldehy 2.8677-6 2.5563-6 1.5042-6 1.7132-7
 HCOOH           9.5490-7 8.5181-7 5.0760-7 7.3651-8
 H2O             1.4487-1 1.4472-1 1.4308-1 1.2581-1
 H2O2            4.646-10 3.625-10 3.395-11 2.002-17
 *N              1.919 -9 1.468 -9 8.612-11 1.965-18
 NCO             2.640 -9 2.099 -9 3.122-10 5.392-15
 *NH             2.748 -8 2.158 -8 2.151 -9 1.879-15
 NH2             1.023 -6 8.524 -7 1.990 -7 4.982-11
 NH3             1.7757-4 1.6433-4 1.3811-4 1.3595-4
 NH2OH           2.040-10 1.580-10 2.452-11 1.035-15
 *NO             1.428 -6 1.198 -6 1.680 -7 6.863-13
 NO2             2.566-12 1.880-12 7.305-14 1.296-22
 *N2             2.6767-1 2.6768-1 2.6774-1 2.6818-1
 N2O             4.833-10 3.827-10 4.155-11 6.626-17
 NCN             1.222-13 8.459-14 4.454-15 2.479-22
 N2H2            1.718-10 1.322-10 1.931-11 6.043-16
 N2H4            2.403-12 1.793-12 3.411-13 1.308-16
 N3              8.360-14 5.841-14 2.542-15 2.710-23
 N3H             1.547-12 1.125-12 9.544-14 9.626-20
 *O              3.476 -8 2.762 -8 1.755 -9 3.817-17
 *OH             3.830 -5 3.337 -5 6.768 -6 2.512-10
 *O2             5.210 -9 4.144 -9 2.660-10 5.713-18

  * THERMODYNAMIC PROPERTIES FITTED TO 20000.K

              THEORETICAL ROCKET PERFORMANCE ASSUMING EQUILIBRIUM

            COMPOSITION DURING EXPANSION FROM FINITE AREA COMBUSTOR

 Pin =  1469.6 PSIA
 Ac/At =  2.0000      Pinj/Pinf =  1.056239
 CASE = test___________

             REACTANT                       MOLES         ENERGY      TEMP
                                                         KJ/KG-MOL      K
 FUEL        CH6N2(L),MMH               100.0000000     54200.000    298.150
 OXIDANT     N2O4                       100.0000000     11257.595    300.000

 O/F=    0.89157  %FUEL= 52.866042  R,EQ.RATIO= 2.800000  PHI,EQ.RATIO= 2.800000

                 INJECTOR  COMB END  THROAT     EXIT
 Pinj/P            1.0000   1.1225   1.9236   18.664
 P, BAR            101.33   90.265   52.675   5.4289
 T, K             2232.68  2203.74  1961.11  1183.50
 RHO, KG/CU M    8.7341e0 7.8830e0 5.1698e0 8.8607-1
 H, KJ/KG          679.60   609.45   27.209 -1788.06
 U, KJ/KG         -480.51  -535.62  -991.67 -2400.75
 G, KJ/KG        -28057.2 -27817.6 -25270.0 -17054.5
 S, KJ/(KG)(K)    12.8710  12.8994  12.8994  12.8994

 M, (1/n)          16.002   16.002   16.004   16.061
 (dLV/dLP)t      -1.00041 -1.00038 -1.00028 -1.00692
 (dLV/dLT)p        1.0037   1.0034   1.0018   1.0805
 Cp, KJ/(KG)(K)    2.4445   2.4371   2.3765   2.7508
 GAMMAs            1.2718   1.2727   1.2806   1.2703
 SON VEL,M/SEC     1214.7   1207.2   1142.3    882.2
 MACH NUMBER        0.000    0.310    1.000    2.518

 PERFORMANCE PARAMETERS

 Ae/At                      2.0000   1.0000   3.0000
 CSTAR, M/SEC               1624.5   1624.5   1624.5
 CF                         0.2306   0.7032   1.3676
 Ivac, M/SEC                3431.6   2034.2   2497.3
 Isp, M/SEC                  374.6   1142.3   2221.6

 MOLE FRACTIONS

 *C              7.493-14 4.959-14 9.661-16 6.200-26
 *CH             1.201-12 8.193-13 2.828-14 8.806-23
 CH2             4.293-10 3.212-10 3.545-11 1.780-16
 CH3             2.4459-7 2.0567-7 9.1975-8 3.2480-9
 CH2OH           1.201 -9 9.484-10 2.327-10 2.233-13
 CH3O            1.517-10 1.162-10 2.152-11 4.596-15
 CH4             1.2441-5 1.1529-5 1.7493-5 1.7806-3
 CH3OH           9.1330-9 7.7711-9 5.1841-9 3.4349-9
 CH3OOH          1.226-16 8.284-17 6.117-18 8.756-24
 *CN             1.340 -9 1.024 -9 1.038-10 1.921-16
 CNN             1.389-16 8.650-17 1.666-18 2.826-28
 *CO             1.7321-1 1.7306-1 1.7140-1 1.5165-1
 *CO2            1.0348-2 1.0507-2 1.2196-2 3.0858-2
 COOH            9.073 -8 7.667 -8 2.048 -8 1.303-11
 C2H             4.001-13 2.730-13 1.667-14 4.429-21
 C2H2,acetylene  1.006 -8 8.244 -9 3.835 -9 3.060-10
 C2H2,vinylidene 2.836-12 2.049-12 2.858-13 1.524-17
 CH2CO,ketene    1.7164-8 1.4326-8 7.9600-9 1.8021-9
 O(CH)2O         3.387-12 2.636-12 7.522-13 3.486-15
 HO(CO)2OH       7.954-15 6.205-15 1.827-15 1.157-17
 C2H3,vinyl      7.085-12 5.245-12 1.229-12 2.530-15
 CH3CN           3.486-10 2.860-10 2.381-10 1.726 -9
 CH3CO,acetyl    2.652-11 2.030-11 6.569-12 1.059-13
 C2H4            9.087-10 7.563-10 7.219-10 1.149 -8
 C2H4O,ethylen-o 7.505-15 5.601-15 1.898-15 6.928-17
 CH3CHO,ethanal  4.722-11 3.829-11 2.852-11 1.063-10
 CH3COOH         2.645-12 2.143-12 1.594-12 7.019-12
 OHCH2COOH       5.839-15 4.349-15 1.459-15 6.104-17
 C2H5            1.078-12 8.094-13 3.847-13 1.566-13
 C2H6            8.186-12 6.700-12 9.637-12 5.078 -9
 C2H5OH          3.418-14 2.594-14 1.818-14 1.343-13
 CH3OCH3         3.574-16 2.620-16 1.319-16 1.351-16
 CNC             2.767-16 1.732-16 4.630-18 8.600-27
 OCCN            1.028-11 7.532-12 9.105-13 1.356-17
 C2N2            2.690-11 2.064-11 5.142-12 1.060-14
 C2O             1.235-11 9.054-12 8.299-13 1.480-18
 C3H3,2-propynl  5.376-14 3.792-14 9.895-15 1.114-16
 C3H4,allene     2.443-14 1.800-14 9.467-15 1.230-14
 C3H4,propyne    5.761-14 4.266-14 2.356-14 4.036-14
 C3H4,cyclo-     1.807-16 1.253-16 3.707-17 1.559-18
 C3H5,allyl      1.231-15 8.708-16 4.139-16 5.239-16
 C3H6,propylene  4.932-15 3.667-15 3.731-15 7.033-13
 C3H6,cyclo-     2.215-17 1.605-17 1.275-17 5.944-16
 C3H6O,acetone   8.521-17 6.263-17 5.707-17 5.632-15
 C3H6O,propanal  7.151-17 5.115-17 3.603-17 7.974-16
 C3H8            1.343-17 9.728-18 1.359-17 4.947-14
 C3O2            7.834-12 6.150-12 1.912-12 1.470-14
 *H              4.3388-4 3.9142-4 1.1077-4 4.0843-8
 HCN             3.4704-5 3.1001-5 1.8645-5 2.4804-6
 HCO             1.668 -6 1.413 -6 3.855 -7 2.582-10
 HCCO            4.314-11 3.245-11 5.018-12 3.259-16
 HNC             2.5844-6 2.2095-6 8.7328-7 9.3346-9
 HNCO            3.1868-6 2.8433-6 1.6904-6 2.0744-7
 HNO             1.855 -9 1.441 -9 1.304-10 8.720-17
 HNO2            4.704-12 3.462-12 1.864-13 5.467-21
 HO2             2.393-11 1.760-11 7.089-13 2.058-21
 *H2             4.1632-1 4.1653-1 4.1844-1 4.3334-1
 HCHO,formaldehy 2.9849-6 2.6608-6 1.5674-6 1.7872-7
 HCOOH           8.9559-7 7.9915-7 4.7856-7 7.2077-8
 H2O             1.3395-1 1.3379-1 1.3212-1 1.1573-1
 H2O2            2.248-10 1.735-10 1.463-11 5.759-18
 *N              9.361-10 7.060-10 3.611-11 4.775-19
 NCO             1.821 -9 1.436 -9 1.990-10 2.599-15
 *NH             1.635 -8 1.271 -8 1.142 -9 6.600-16
 NH2             7.988 -7 6.621 -7 1.465 -7 2.953-11
 NH3             2.0092-4 1.8622-4 1.5895-4 1.6588-4
 NH2OH           1.406-10 1.083-10 1.588-11 5.432-16
 *NO             7.663 -7 6.360 -7 8.082 -8 2.243-13
 NO2             9.215-13 6.644-13 2.211-14 2.155-23
 *N2             2.6546-1 2.6547-1 2.6553-1 2.6648-1
 N2O             2.586-10 2.028-10 1.998-11 2.201-17
 NCN             7.818-14 5.350-14 2.534-15 9.241-23
 N2H2            1.273-10 9.738-11 1.343-11 3.354-16
 N2H4            2.208-12 1.643-12 3.046-13 1.062-16
 N3              4.271-14 2.945-14 1.129-15 7.342-24
 N3H             9.943-13 7.168-13 5.583-14 4.051-20
 *O              1.467 -8 1.148 -8 6.313-10 7.755-18
 *OH             2.279 -5 1.969 -5 3.675 -6 9.821-11
 *O2             1.983 -9 1.554 -9 8.629-11 1.055-18

  * THERMODYNAMIC PROPERTIES FITTED TO 20000.K

              THEORETICAL ROCKET PERFORMANCE ASSUMING EQUILIBRIUM

            COMPOSITION DURING EXPANSION FROM FINITE AREA COMBUSTOR

 Pin =  1469.6 PSIA
 Ac/At =  2.0000      Pinj/Pinf =  1.056361
 CASE = test___________

             REACTANT                       MOLES         ENERGY      TEMP
                                                         KJ/KG-MOL      K
 FUEL        CH6N2(L),MMH               100.0000000     54200.000    298.150
 OXIDANT     N2O4                       100.0000000     11257.595    300.000

 O/F=    0.86083  %FUEL= 53.739474  R,EQ.RATIO= 2.900000  PHI,EQ.RATIO= 2.900000

                 INJECTOR  COMB END  THROAT     EXIT
 Pinj/P            1.0000   1.1228   1.9263   18.606
 P, BAR            101.33   90.243   52.601   5.4459
 T, K             2172.30  2143.75  1904.69  1156.05
 RHO, KG/CU M    8.8570e0 7.9933e0 5.2443e0 9.0084-1
 H, KJ/KG          688.81   619.48   44.636 -1736.91
 U, KJ/KG         -455.21  -509.50  -958.36 -2341.45
 G, KJ/KG        -27361.1 -27123.7 -24604.7 -16697.9
 S, KJ/(KG)(K)    12.9125  12.9414  12.9414  12.9414

 M, (1/n)          15.788   15.788   15.789   15.900
 (dLV/dLP)t      -1.00044 -1.00040 -1.00035 -1.01290
 (dLV/dLT)p        1.0033   1.0030   1.0021   1.1545
 Cp, KJ/(KG)(K)    2.4462   2.4392   2.3835   3.2508
 GAMMAs            1.2759   1.2768   1.2845   1.2524
 SON VEL,M/SEC     1208.2   1200.6   1135.1    870.1
 MACH NUMBER        0.000    0.310    1.000    2.531

 PERFORMANCE PARAMETERS

 Ae/At                      2.0000   1.0000   3.0000
 CSTAR, M/SEC               1611.4   1611.4   1611.4
 CF                         0.2311   0.7044   1.3669
 Ivac, M/SEC                3404.4   2018.7   2477.1
 Isp, M/SEC                  372.3   1135.1   2202.6

 MOLE FRACTIONS

 *C              3.501-14 2.277-14 3.753-16 1.665-26
 *CH             6.855-13 4.612-13 1.395-14 3.221-23
 CH2             3.413-10 2.534-10 2.603-11 1.094-16
 CH3             2.8519-7 2.3976-7 1.0719-7 3.6710-9
 CH2OH           1.105 -9 8.699-10 2.080-10 1.877-13
 CH3O            1.309-10 9.989-11 1.787-11 3.552-15
 CH4             2.0420-5 1.9052-5 3.0924-5 3.5213-3
 CH3OH           1.1272-8 9.6186-9 6.6105-9 4.6241-9
 *CN             9.546-10 7.226-10 6.721-11 1.018-16
 *CO             1.7437-1 1.7422-1 1.7255-1 1.5152-1
 *CO2            9.7130-3 9.8711-3 1.1565-2 3.0413-2
 COOH            6.615 -8 5.565 -8 1.424 -8 8.456-12
 C2H             3.266-13 2.209-13 1.242-14 2.664-21
 C2H2,acetylene  1.386 -8 1.137 -8 5.373 -9 4.236-10
 C2H2,vinylidene 2.993-12 2.154-12 2.891-13 1.357-17
 CH2CO,ketene    2.2158-8 1.8535-8 1.0543-8 2.4502-9
 O(CH)2O         3.397-12 2.641-12 7.513-13 3.480-15
 HO(CO)2OH       6.512-15 5.079-15 1.498-15 1.007-17
 C2H3,vinyl      9.022-12 6.675-12 1.558-12 3.037-15
 CH3CN           6.210-10 5.127-10 4.550-10 3.628 -9
 CH3CO,acetyl    3.265-11 2.501-11 8.202-12 1.333-13
 C2H4            1.6985-9 1.4234-9 1.4561-9 2.5542-8
 C2H4O,ethylen-o 1.004-14 7.509-15 2.615-15 9.916-17
 CH3CHO,ethanal  7.525-11 6.137-11 4.853-11 2.001-10
 CH3COOH         3.792-12 3.091-12 2.449-12 1.241-11
 OHCH2COOH       6.315-15 4.717-15 1.632-15 7.572-17
 C2H5            1.857-12 1.401-12 7.006-13 3.023-13
 C2H6            1.938-11 1.604-11 2.577-11 1.631 -8
 C2H5OH          6.216-14 4.755-14 3.612-14 3.089-13
 CH3OCH3         6.040-16 4.456-16 2.397-16 2.760-16
 CNC             1.849-16 1.143-16 2.713-18 3.803-27
 OCCN            8.644-12 6.299-12 7.216-13 9.476-18
 C2N2            3.113-11 2.386-11 5.888-12 1.158-14
 C2O             9.235-12 6.719-12 5.706-13 8.512-19
 C3H3,2-propynl  8.833-14 6.245-14 1.672-14 1.867-16
 C3H4,allene     5.042-14 3.739-14 2.106-14 2.967-14
 C3H4,propyne    1.202-13 8.961-14 5.311-14 9.894-14
 C3H4,cyclo-     3.282-16 2.286-16 7.065-17 3.064-18
 C3H5,allyl      2.671-15 1.903-15 9.770-16 1.369-15
 C3H6,propylene  1.363-14 1.026-14 1.177-14 2.677-12
 C3H6,cyclo-     5.791-17 4.241-17 3.766-17 2.086-15
 C3H6O,acetone   2.070-16 1.539-16 1.575-16 1.904-14
 C3H6O,propanal  1.640-16 1.186-16 9.285-17 2.470-15
 C3H8            4.606-17 3.388-17 5.544-17 2.636-13
 C3O2            8.721-12 6.845-12 2.133-12 1.626-14
 C4H2,butadiyne  1.812-16 1.217-16 2.658-17 1.481-19
 C4H6,butadiene  2.752-18 1.880-18 1.541-18 1.565-16
 *H              3.1296-4 2.8049-4 7.4467-5 2.4027-8
 HCN             3.9454-5 3.5249-5 2.1250-5 2.7831-6
 HCO             1.357 -6 1.144 -6 2.988 -7 1.815-10
 HCCO            3.900-11 2.920-11 4.324-12 2.513-16
 HNC             2.6775-6 2.2850-6 8.8874-7 9.0034-9
 HNCO            3.2561-6 2.9054-6 1.7310-6 2.1375-7
 HNO             9.892-10 7.606-10 6.230-11 3.463-17
 HNO2            2.015-12 1.464-12 6.972-14 1.664-21
 HO2             9.098-12 6.591-12 2.290-13 5.077-22
 *H2             4.2820-1 4.2841-1 4.3027-1 4.4163-1
 HCHO,formaldehy 3.0977-6 2.7613-6 1.6288-6 1.8507-7
 HCOOH           8.3940-7 7.4928-7 4.5108-7 7.0587-8
 H2O             1.2369-1 1.2353-1 1.2185-1 1.0741-1
 H2O2            1.083-10 8.268-11 6.277-12 2.063-18
 *N              4.541-10 3.377-10 1.506-11 1.504-19
 NCO             1.252 -9 9.802-10 1.265-10 1.434-15
 *NH             9.677 -9 7.439 -9 6.030-10 2.810-16
 NH2             6.210 -7 5.118 -7 1.073 -7 1.929-11
 NH3             2.2666-4 2.1039-4 1.8241-4 1.9546-4
 NH2OH           9.657-11 7.391-11 1.025-11 3.203-16
 *NO             4.101 -7 3.368 -7 3.876 -8 8.952-14
 NO2             3.299-13 2.341-13 6.669-15 4.940-24
 *N2             2.6340-1 2.6341-1 2.6345-1 2.6530-1
 N2O             1.382-10 1.073-10 9.591-12 8.930-18
 NCN             4.970-14 3.364-14 1.433-15 4.164-23
 N2H2            9.401-11 7.146-11 9.301-12 2.082-16
 N2H4            2.017-12 1.497-12 2.705-13 9.007-17
 N3              2.172-14 1.478-14 4.994-16 2.540-24
 N3H             6.365-13 4.548-13 3.253-14 2.009-20
 *O              6.163 -9 4.753 -9 2.260-10 2.097-18
 *OH             1.352 -5 1.158 -5 1.988 -6 4.532-11
 *O2             7.525-10 5.810-10 2.790-11 2.624-19

  * THERMODYNAMIC PROPERTIES FITTED TO 20000.K

              THEORETICAL ROCKET PERFORMANCE ASSUMING EQUILIBRIUM

            COMPOSITION DURING EXPANSION FROM FINITE AREA COMBUSTOR

 Pin =  1469.6 PSIA
 Ac/At =  2.0000      Pinj/Pinf =  1.056477
 CASE = test___________

             REACTANT                       MOLES         ENERGY      TEMP
                                                         KJ/KG-MOL      K
 FUEL        CH6N2(L),MMH               100.0000000     54200.000    298.150
 OXIDANT     N2O4                       100.0000000     11257.595    300.000

 O/F=    0.83214  %FUEL= 54.581125  R,EQ.RATIO= 3.000000  PHI,EQ.RATIO= 3.000000

                 INJECTOR  COMB END  THROAT     EXIT
 Pinj/P            1.0000   1.1231   1.9288   18.470
 P, BAR            101.33   90.222   52.531   5.4860
 T, K             2114.67  2086.51  1851.09  1136.04
 RHO, KG/CU M    8.9828e0 8.1062e0 5.3205e0 9.1612-1
 H, KJ/KG          697.68   629.19   61.763 -1685.54
 U, KJ/KG         -430.31  -483.80  -925.57 -2284.37
 G, KJ/KG        -26687.6 -26452.6 -23964.4 -16430.7
 S, KJ/(KG)(K)    12.9502  12.9795  12.9795  12.9795

 M, (1/n)          15.587   15.587   15.588   15.773
 (dLV/dLP)t      -1.00050 -1.00046 -1.00047 -1.02040
 (dLV/dLT)p        1.0032   1.0029   1.0027   1.2494
 Cp, KJ/(KG)(K)    2.4498   2.4431   2.3924   3.9061
 GAMMAs            1.2798   1.2807   1.2882   1.2350
 SON VEL,M/SEC     1201.5   1193.9   1127.8    860.0
 MACH NUMBER        0.000    0.310    1.000    2.539

 PERFORMANCE PARAMETERS

 Ae/At                      2.0000  1.00000   3.0000
 CSTAR, M/SEC               1598.4   1598.4   1598.4
 CF                         0.2315   0.7055   1.3659
 Ivac, M/SEC                3377.4   2003.2   2457.5
 Isp, M/SEC                  370.1   1127.8   2183.2

 MOLE FRACTIONS

 *C              1.623-14 1.037-14 1.446-16 6.153-27
 *CH             3.881-13 2.576-13 6.832-15 1.509-23
 CH2             2.694-10 1.985-10 1.898-11 7.618-17
 CH3             3.3088-7 2.7812-7 1.2432-7 4.0677-9
 CH2OH           1.011 -9 7.939-10 1.849-10 1.650-13
 CH3O            1.124-10 8.547-11 1.477-11 2.931-15
 CH4             3.3431-5 3.1407-5 5.4536-5 5.9805-3
 CH3OH           1.3864-8 1.1864-8 8.4019-9 5.8269-9
 *CN             6.768-10 5.078-10 4.333-11 6.325-17
 *CO             1.7544-1 1.7529-1 1.7361-1 1.5105-1
 *CO2            9.1291-3 9.2865-3 1.0983-2 2.9826-2
 COOH            4.814 -8 4.031 -8 9.884 -9 6.047-12
 C2H             2.647-13 1.775-13 9.188-15 1.838-21
 C2H2,acetylene  1.901 -8 1.562 -8 7.497 -9 5.515-10
 C2H2,vinylidene 3.138-12 2.249-12 2.905-13 1.263-17
 CH2CO,ketene    2.8525-8 2.3915-8 1.3928-8 3.1270-9
 O(CH)2O         3.398-12 2.641-12 7.488-13 3.491-15
 HO(CO)2OH       5.333-15 4.159-15 1.230-15 8.987-18
 C2H3,vinyl      1.141-11 8.440-12 1.963-12 3.553-15
 CH3CN           1.103 -9 9.165-10 8.674-10 6.518 -9
 CH3CO,acetyl    4.003-11 3.070-11 1.020-11 1.608-13
 C2H4            3.1613-9 2.6677-9 2.9252-9 4.7842-8
 C2H4O,ethylen-o 1.336-14 1.002-14 3.589-15 1.321-16
 CH3CHO,ethanal  1.195-10 9.804-11 8.232-11 3.284-10
 CH3COOH         5.427-12 4.451-12 3.757-12 1.931-11
 OHCH2COOH       6.819-15 5.108-15 1.824-15 8.942-17
 C2H5            3.179-12 2.411-12 1.268-12 5.095-13
 C2H6            4.568-11 3.823-11 6.861-11 4.056 -8
 C2H5OH          1.125-13 8.677-14 7.147-14 5.922-13
 CH3OCH3         1.015-15 7.540-16 4.336-16 4.836-16
 CNC             1.226-16 7.485-17 1.578-18 2.079-27
 OCCN            7.245-12 5.250-12 5.700-13 7.285-18
 C2N2            3.596-11 2.752-11 6.729-12 1.261-14
 C2O             6.877-12 4.963-12 3.906-13 5.627-19
 C3H3,2-propynl  1.443-13 1.022-13 2.810-14 2.842-16
 C3H4,allene     1.035-13 7.727-14 4.663-14 5.968-14
 C3H4,propyne    2.494-13 1.873-13 1.191-13 2.014-13
 C3H4,cyclo-     5.924-16 4.143-16 1.338-16 5.272-18
 C3H5,allyl      5.760-15 4.136-15 2.294-15 2.931-15
 C3H6,propylene  3.746-14 2.853-14 3.694-14 7.641-12
 C3H6,cyclo-     1.506-16 1.115-16 1.107-16 5.601-15
 C3H6O,acetone   5.007-16 3.766-16 4.333-16 4.937-14
 C3H6O,propanal  3.745-16 2.736-16 2.383-16 5.994-15
 C3H8            1.570-16 1.174-16 2.249-16 9.752-13
 C3O2            9.695-12 7.610-12 2.376-12 1.772-14
 C4H2,butadiyne  3.310-16 2.229-16 5.021-17 2.472-19
 C4H6,butadiene  8.792-18 6.089-18 5.726-18 5.195-16
 C4H8,1-butene   1.188-19 8.087-20 1.122-19 1.726-16
 C4H8,cis2-buten 4.526-20 3.108-20 4.692-20 1.125-16
 C4H8,tr2-butene 5.093-20 3.496-20 5.270-20 1.281-16
 C4H8,isobutene  5.458-20 3.763-20 5.908-20 1.800-16
 *H              2.2493-4 2.0026-4 4.9885-5 1.6011-8
 HCN             4.4759-5 3.9995-5 2.4169-5 3.0641-6
 HCO             1.100 -6 9.237 -7 2.309 -7 1.389-10
 HCCO            3.510-11 2.615-11 3.710-12 2.080-16
 HNC             2.7657-6 2.3562-6 9.0192-7 8.8365-9
 HNCO            3.3234-6 2.9658-6 1.7711-6 2.1922-7
 HNO             5.257-10 4.000-10 2.966-11 1.706-17
 HNO2            8.605-13 6.172-13 2.600-14 6.657-22
 HO2             3.442-12 2.456-12 7.360-14 1.726-22
 *H2             4.3934-1 4.3955-1 4.4135-1 4.4757-1
 HCHO,formaldehy 3.2065-6 2.8584-6 1.6886-6 1.9032-7
 HCOOH           7.8612-7 7.0201-7 4.2502-7 6.9178-8
 H2O             1.1405-1 1.1389-1 1.1221-1 1.0073-1
 H2O2            5.197-11 3.924-11 2.683-12 9.326-19
 *N              2.192-10 1.607-10 6.245-12 6.241-20
 NCO             8.581-10 6.669-10 8.020-11 9.136-16
 *NH             5.697 -9 4.332 -9 3.168-10 1.469-16
 NH2             4.807 -7 3.939 -7 7.830 -8 1.398-11
 NH3             2.5504-4 2.3709-4 2.0881-4 2.2221-4
 NH2OH           6.607-11 5.027-11 6.595-12 2.139-16
 *NO             2.189 -7 1.779 -7 1.854 -8 4.419-14
 NO2             1.177-13 8.217-14 2.005-15 1.590-24
 *N2             2.6145-1 2.6146-1 2.6150-1 2.6461-1
 N2O             7.367-11 5.661-11 4.595-12 4.477-18
 NCN             3.143-14 2.104-14 8.068-16 2.295-23
 N2H2            6.918-11 5.227-11 6.423-12 1.457-16
 N2H4            1.835-12 1.357-12 2.393-13 8.018-17
 N3              1.100-14 7.386-15 2.200-16 1.139-24
 N3H             4.060-13 2.875-13 1.890-14 1.186-20
 *O              2.577 -9 1.958 -9 8.052-11 7.677-19
 *OH             7.989 -6 6.785 -6 1.072 -6 2.495-11
 *O2             2.845-10 2.164-10 8.989-12 8.965-20

  * THERMODYNAMIC PROPERTIES FITTED TO 20000.K