

         NASA-GLENN CHEMICAL EQUILIBRIUM PROGRAM CEA2, FEBRUARY 5, 2004
                   BY  BONNIE MCBRIDE AND SANFORD GORDON
      REFS: NASA RP-1311, PART I, 1994 AND NASA RP-1311, PART II, 1996

 *******************************************************************************

  
 ### CEA analysis performed on Wed 20-Apr-2022 15:46:26
  
 # Problem Type: "Rocket" (Finite Area Combustor)
  
 prob case=test___________2464 ro equilibrium    fac
  
 !Contraction Ratio:
 ac/at=2
  
 # Pressure (1 value):
 p,bar= 22
 # Supersonic Area Ratio (1 value):
 supar= 2.5
  
 # Equivalence based on Fuel/Oxid. wt ratio (Eq 9.19*) (11 values):
 phi= 3, 3.1, 3.2, 3.3, 3.4, 3.5, 3.6, 3.7, 3.8, 3.9, 4
  
 # You selected the following fuels and oxidizers:
 reac
 fuel RP-1             mole=100.0000
 oxid O2(L)            mole=100.0000
  
 # You selected these options for output:
 # short version of output
 output short
 # Proportions of any products will be expressed as Mole Fractions.
 # Heat will be expressed as siunits
 output siunits
 # Trace variable:
 output trace=1e-16
  
 # Input prepared by this script:/var/www/sites/cearun.grc.nasa.gov/cgi-bin/CEARU
 N/prepareInputFile.cgi
  
 ### IMPORTANT:  The following line is the end of your CEA input file!
 end

              THEORETICAL ROCKET PERFORMANCE ASSUMING EQUILIBRIUM

            COMPOSITION DURING EXPANSION FROM FINITE AREA COMBUSTOR

 Pin =   319.1 PSIA
 Ac/At =  2.0000      Pinj/Pinf =  1.056231
 CASE = test___________

             REACTANT                       MOLES         ENERGY      TEMP
                                                         KJ/KG-MOL      K
 FUEL        RP-1                       100.0000000    -24717.700    298.150
 OXIDANT     O2(L)                      100.0000000    -12979.000     90.170

 O/F=    1.13522  %FUEL= 46.833536  R,EQ.RATIO= 3.000000  PHI,EQ.RATIO= 3.000000

                 INJECTOR  COMB END  THROAT     EXIT
 Pinj/P            1.0000   1.1224   1.9090   12.168
 P, BAR            22.000   19.600   11.524   1.8080
 T, K             1610.28  1587.59  1425.90  1102.65
 RHO, KG/CU M    2.5283 0 2.2848 0 1.5076 0 3.2264-1
 H, KJ/KG        -1043.93 -1096.44 -1526.42 -2729.54
 U, KJ/KG        -1914.08 -1954.28 -2290.82 -3289.91
 G, KJ/KG        -21813.5 -21620.3 -19960.0 -16984.2
 S, KJ/(KG)(K)    12.8981  12.9277  12.9277  12.9277

 M, (1/n)          15.387   15.388   15.510   16.361
 MW, MOL WT        15.356   15.351   15.410   15.519
 (dLV/dLP)t      -1.01327 -1.01334 -1.02056 -1.06122
 (dLV/dLT)p        1.1112   1.1143   1.2095   1.9304
 Cp, KJ/(KG)(K)    2.7997   2.8210   3.4331   9.6527
 GAMMAs            1.2904   1.2894   1.2624   1.1560
 SON VEL,M/SEC     1059.6   1051.7    982.3    804.9
 MACH NUMBER        0.000    0.308    1.000    2.281

 PERFORMANCE PARAMETERS

 Ae/At                      2.0000   1.0000   2.5000
 CSTAR, M/SEC               1406.4   1406.4   1406.4
 CF                         0.2304   0.6985   1.3055
 Ivac, M/SEC                2971.0   1760.5   2141.3
 Isp, M/SEC                  324.1    982.3   1836.1

 MOLE FRACTIONS

 *CH             4.310-15 2.422-15 1.901-17 1.842-23
 CH2             6.308-11 4.192-11 1.540-12 1.078-16
 CH3             3.0916-6 2.5269-6 5.9526-7 7.5175-9
 CH2OH           7.137-11 5.472-11 1.150-11 7.267-14
 CH3O            3.904-12 2.875-12 4.386-13 1.156-15
 CH4             8.0876-3 7.9356-3 9.9264-3 1.3520-2
 CH3OH           1.3808-8 1.2241-8 1.0063-8 2.7905-9
 *CO             5.0289-1 5.0243-1 4.9625-1 4.2585-1
 *CO2            1.5014-3 1.5912-3 3.7856-3 2.9189-2
 COOH            1.622-10 1.342-10 5.289-11 1.974-12
 C2H             9.772-13 5.675-13 5.804-15 1.203-20
 C2H2,acetylene  1.4768-5 1.1650-5 1.7005-6 6.3517-9
 C2H2,vinylidene 9.923-11 6.453-11 1.981-12 8.080-17
 CH2CO,ketene    1.3056-6 1.0928-6 3.8342-7 1.2422-8
 O(CH)2O         1.006-12 7.838-13 2.309-13 3.253-15
 C2H3,vinyl      1.424 -9 9.920-10 6.439-11 1.967-14
 CH3CO,acetyl    4.440-10 3.368-10 6.527-11 3.354-13
 C2H4            1.6153-5 1.3866-5 5.8890-6 3.4956-7
 C2H4O,ethylen-o 1.676-13 1.264-13 2.828-14 1.900-16
 CH3CHO,ethanal  1.181 -8 1.007 -8 6.039 -9 6.801-10
 CH3COOH         2.037-11 1.798-11 2.150-11 1.302-11
 OHCH2COOH       1.179-16 9.489-17 8.093-17 1.330-17
 C2H5            2.560 -9 1.939 -9 3.655-10 1.794-12
 C2H6            6.8598-7 6.1084-7 5.1480-7 1.6337-7
 C2H5OH          9.416-12 7.727-12 5.046-12 5.406-13
 CH3OCH3         3.548-14 2.764-14 1.185-14 3.771-16
 C2O             2.754-12 1.785-12 5.438-14 2.107-18
 C3H3,1-propynl  6.771-14 4.028-14 7.340-16 5.699-21
 C3H3,2-propynl  1.769 -9 1.184 -9 5.573-11 6.786-15
 C3H4,allene     8.114 -9 5.987 -9 7.525-10 1.345-12
 C3H4,propyne    2.219 -8 1.650 -8 2.200 -9 4.636-12
 C3H4,cyclo-     1.018-11 6.858-12 4.148-13 9.049-17
 C3H5,allyl      3.482-10 2.496-10 3.026-11 4.273-14
 C3H6,propylene  1.664 -8 1.325 -8 4.528 -9 1.067-10
 C3H6,cyclo-     3.537-11 2.712-11 6.884-12 7.026-14
 C3H6O,propylox  1.460-16 1.028-16 1.964-17 6.223-20
 C3H6O,acetone   6.169-12 4.982-12 2.855-12 2.081-13
 C3H6O,propanal  2.354-12 1.827-12 7.612-13 2.250-14
 C3H7,n-propyl   5.761-13 3.979-13 5.267-14 6.958-17
 C3H7,i-propyl   5.611-13 3.926-13 5.761-14 1.012-16
 C3H8            1.609-10 1.309-10 7.915-11 7.202-12
 C3H8O,1propanol 2.003-15 1.506-15 7.180-16 2.301-17
 C3H8O,2propanol 2.243-15 1.709-15 9.095-16 4.055-17
 C3O2            2.678-10 2.055-10 3.622-11 1.547-13
 C4H2,butadiyne  1.745-10 1.083-10 2.291-12 3.262-17
 C4H4,1,3-cyclo- 4.254-15 2.554-15 6.106-17 9.190-22
 C4H6,butadiene  1.205-10 8.618-11 1.250-11 2.576-14
 C4H6,1butyne    5.618-12 3.815-12 3.627-13 2.154-16
 C4H6,2butyne    6.202-12 4.321-12 5.050-13 5.370-16
 C4H6,cyclo-     1.548-13 1.063-13 1.107-14 8.707-18
 C4H8,1-butene   3.630-12 2.643-12 6.500-13 4.424-15
 C4H8,cis2-buten 1.693-12 1.248-12 3.372-13 2.979-15
 C4H8,tr2-butene 1.902-12 1.401-12 3.795-13 3.401-15
 C4H8,isobutene  2.250-12 1.668-12 4.736-13 4.863-15
 C4H8,cyclo-     1.221-15 8.633-16 1.678-16 5.924-19
 C4H9,n-butyl    3.404-16 2.177-16 2.292-17 1.171-20
 C4H9,i-butyl    2.090-16 1.348-16 1.527-17 9.663-21
 C4H9,s-butyl    2.283-16 1.462-16 1.558-17 8.114-21
 C4H10,n-butane  3.841-14 2.855-14 1.227-14 3.132-16
 C4H10,isobutane 1.382-14 1.037-14 4.788-15 1.511-16
 C5H6,1,3cyclo-  2.273-12 1.595-12 1.986-13 2.608-16
 C5H8,cyclo-     1.249-14 8.764-15 1.606-15 4.791-18
 C5H10,1-pentene 6.678-16 4.453-16 7.961-17 1.582-19
 C6H2            2.203-15 1.077-15 3.341-18 1.886-25
 C6H5,phenyl     2.287-15 1.368-15 3.876-17 8.179-22
 C6H6            2.289-11 1.702-11 3.371-12 1.665-14
 C6H5OH,phenol   2.271-15 1.598-15 3.038-16 9.413-19
 C7H7,benzyl     7.984-16 4.866-16 2.362-17 1.794-21
 C7H8            3.428-14 2.367-14 3.807-15 7.644-18
 C8H8,styrene    4.231-16 2.617-16 1.737-17 2.748-21
 *H              8.9604-6 7.4627-6 1.3990-6 1.3306-8
 HCO             1.044 -7 8.387 -8 1.736 -8 1.427-10
 HCCO            5.512-11 3.822-11 2.429-12 6.687-16
 *H2             4.8108-1 4.8112-1 4.7535-1 4.4851-1
 HCHO,formaldehy 2.3236-6 2.0790-6 1.2482-6 1.9024-7
 HCOOH           2.2689-8 2.1087-8 2.5843-8 2.2721-8
 H2O             4.3774-3 4.5002-3 8.2642-3 3.1465-2
 H2O2            1.132-16 8.155-17 1.278-17 2.905-20
 *O              5.052-14 3.399-14 1.405-15 1.379-19
 *OH             3.833 -9 3.075 -9 6.343-10 5.300-12
 *O2             2.096-16 1.456-16 1.157-17 5.092-21
 C(gr)           2.0113-3 2.3865-3 6.4095-3 5.1466-2

  * THERMODYNAMIC PROPERTIES FITTED TO 20000.K

              THEORETICAL ROCKET PERFORMANCE ASSUMING EQUILIBRIUM

            COMPOSITION DURING EXPANSION FROM FINITE AREA COMBUSTOR

 Pin =   319.1 PSIA
 Ac/At =  2.0000      Pinj/Pinf =  1.055909
 CASE = test___________

             REACTANT                       MOLES         ENERGY      TEMP
                                                         KJ/KG-MOL      K
 FUEL        RP-1                       100.0000000    -24717.700    298.150
 OXIDANT     O2(L)                      100.0000000    -12979.000     90.170

 O/F=    1.09860  %FUEL= 47.650769  R,EQ.RATIO= 3.100000  PHI,EQ.RATIO= 3.100000

                 INJECTOR  COMB END  THROAT     EXIT
 Pinj/P            1.0000   1.1217   1.9014   12.054
 P, BAR            22.000   19.613   11.571   1.8251
 T, K             1577.15  1555.46  1404.17  1097.18
 RHO, KG/CU M    2.5863 0 2.3381 0 1.5416 0 3.2860-1
 H, KJ/KG        -1055.06 -1106.11 -1524.74 -2708.94
 U, KJ/KG        -1905.70 -1944.97 -2275.31 -3264.34
 G, KJ/KG        -21321.7 -21139.7 -19609.8 -16840.1
 S, KJ/(KG)(K)    12.8502  12.8795  12.8795  12.8795

 M, (1/n)          15.416   15.417   15.555   16.425
 MW, MOL WT        15.131   15.125   15.186   15.280
 (dLV/dLP)t      -1.01581 -1.01591 -1.02391 -1.06421
 (dLV/dLT)p        1.1363   1.1401   1.2485   1.9769
 Cp, KJ/(KG)(K)    2.9573   2.9858   3.7053  10.0366
 GAMMAs            1.2815   1.2802   1.2515   1.1533
 SON VEL,M/SEC     1044.1   1036.3    969.2    800.3
 MACH NUMBER        0.000    0.308    1.000    2.272

 PERFORMANCE PARAMETERS

 Ae/At                      2.0000   1.0000   2.5000
 CSTAR, M/SEC               1394.5   1394.5   1394.5
 CF                         0.2291   0.6950   1.3042
 Ivac, M/SEC                2944.9   1743.6   2124.1
 Isp, M/SEC                  319.5    969.2   1818.7

 MOLE FRACTIONS

 *CH             1.679-15 9.456-16 8.630-18 1.310-23
 CH2             3.444-11 2.292-11 9.281-13 8.694-17
 CH3             2.5044-6 2.0485-6 4.9955-7 7.0161-9
 CH2OH           6.134-11 4.710-11 1.014-11 6.860-14
 CH3O            3.162-12 2.332-12 3.690-13 1.071-15
 CH4             9.3829-3 9.2106-3 1.1280-2 1.4444-2
 CH3OH           1.6085-8 1.4274-8 1.1473-8 2.9554-9
 *CO             4.8609-1 4.8554-1 4.7830-1 4.0673-1
 *CO2            1.8449-3 1.9554-3 4.4636-3 3.0053-2
 COOH            1.516-10 1.256-10 4.983-11 1.866-12
 C2H             3.997-13 2.325-13 2.743-15 8.694-21
 C2H2,acetylene  1.0372-5 8.1885-6 1.2638-6 5.5903-9
 C2H2,vinylidene 5.246-11 3.416-11 1.161-12 6.437-17
 CH2CO,ketene    1.1662-6 9.7692-7 3.4829-7 1.1772-8
 O(CH)2O         9.426-13 7.354-13 2.186-13 3.110-15
 C2H3,vinyl      9.119-10 6.360-10 4.442-11 1.692-14
 CH3CO,acetyl    3.758-10 2.855-10 5.692-11 3.152-13
 C2H4            1.5396-5 1.3226-5 5.6765-6 3.4852-7
 C2H4O,ethylen-o 1.539-13 1.162-13 2.648-14 1.855-16
 CH3CHO,ethanal  1.299 -8 1.108 -8 6.564 -9 7.062-10
 CH3COOH         2.749-11 2.431-11 2.780-11 1.442-11
 OHCH2COOH       1.619-16 1.307-16 1.064-16 1.470-17
 C2H5            2.223 -9 1.686 -9 3.271-10 1.748-12
 C2H6            8.2710-7 7.3729-7 6.0738-7 1.8018-7
 C2H5OH          1.174-11 9.650-12 6.128-12 5.979-13
 CH3OCH3         4.096-14 3.196-14 1.350-14 4.061-16
 C2O             1.410-12 9.154-13 3.090-14 1.616-18
 C3H3,1-propynl  3.439-14 2.050-14 4.173-16 4.520-21
 C3H3,2-propynl  1.068 -9 7.158-10 3.661-11 5.719-15
 C3H4,allene     6.191 -9 4.575 -9 6.029-10 1.242-12
 C3H4,propyne    1.712 -8 1.274 -8 1.778 -9 4.295-12
 C3H4,cyclo-     6.796-12 4.586-12 2.974-13 7.977-17
 C3H5,allyl      2.788-10 2.002-10 2.533-11 4.053-14
 C3H6,propylene  1.702 -8 1.357 -8 4.658 -9 1.112-10
 C3H6,cyclo-     3.424-11 2.630-11 6.771-12 7.188-14
 C3H6O,propylox  1.453-16 1.026-16 1.979-17 6.372-20
 C3H6O,acetone   7.510-12 6.076-12 3.399-12 2.282-13
 C3H6O,propanal  2.704-12 2.102-12 8.635-13 2.420-14
 C3H7,n-propyl   5.234-13 3.623-13 4.926-14 7.025-17
 C3H7,i-propyl   5.196-13 3.643-13 5.472-14 1.028-16
 C3H8            2.037-10 1.661-10 9.793-11 8.241-12
 C3H8O,1propanol 2.632-15 1.984-15 9.168-16 2.642-17
 C3H8O,2propanol 3.006-15 2.297-15 1.181-15 4.691-17
 C3O2            2.047-10 1.572-10 2.875-11 1.351-13
 C4H2,butadiyne  8.613-11 5.355-11 1.269-12 2.540-17
 C4H4,1,3-cyclo- 2.398-15 1.442-15 3.802-17 7.639-22
 C4H6,butadiene  1.053-10 7.545-11 1.129-11 2.544-14
 C4H6,1butyne    4.548-12 3.094-12 3.072-13 2.069-16
 C4H6,2butyne    5.214-12 3.640-12 4.412-13 5.225-16
 C4H6,cyclo-     1.274-13 8.763-14 9.509-15 8.420-18
 C4H8,1-butene   3.902-12 2.847-12 7.015-13 4.781-15
 C4H8,cis2-buten 1.852-12 1.367-12 3.691-13 3.237-15
 C4H8,tr2-butene 2.081-12 1.536-12 4.156-13 3.698-15
 C4H8,isobutene  2.483-12 1.844-12 5.223-13 5.303-15
 C4H8,cyclo-     1.257-15 8.906-16 1.748-16 6.313-19
 C4H9,n-butyl    3.311-16 2.124-16 2.284-17 1.235-20
 C4H9,i-butyl    2.060-16 1.333-16 1.538-17 1.024-20
 C4H9,s-butyl    2.226-16 1.430-16 1.554-17 8.557-21
 C4H10,n-butane  5.102-14 3.802-14 1.590-14 3.716-16
 C4H10,isobutane 1.860-14 1.399-14 6.274-15 1.801-16
 C5H6,1,3cyclo-  1.932-12 1.359-12 1.753-13 2.550-16
 C5H8,cyclo-     1.272-14 8.945-15 1.658-15 5.087-18
 C5H10,1-pentene 7.562-16 5.057-16 9.025-17 1.774-19
 C6H2            7.660-16 3.755-16 1.383-18 1.300-25
 C6H5,phenyl     1.404-15 8.424-16 2.600-17 7.073-22
 C6H6            2.118-11 1.578-11 3.192-12 1.676-14
 C6H5OH,phenol   2.259-15 1.594-15 3.059-16 9.633-19
 C7H7,benzyl     6.036-16 3.689-16 1.898-17 1.701-21
 C7H8            3.409-14 2.360-14 3.852-15 8.043-18
 C8H8,styrene    3.580-16 2.221-16 1.537-17 2.735-21
 *H              6.2260-6 5.1890-6 1.0296-6 1.1587-8
 HCO             8.017 -8 6.444 -8 1.386 -8 1.271-10
 HCCO            3.411-11 2.368-11 1.621-12 5.527-16
 *H2             4.7886-1 4.7889-1 4.7259-1 4.4593-1
 HCHO,formaldehy 2.2891-6 2.0494-6 1.2304-6 1.8652-7
 HCOOH           2.7554-8 2.5637-8 3.0405-8 2.3793-8
 H2O             5.2892-3 5.4382-3 9.6538-3 3.3110-2
 *O              2.732-14 1.841-14 8.370-16 1.080-19
 *OH             2.939 -9 2.360 -9 5.064-10 4.723-12
 *O2             1.384-16 9.631-17 8.142-18 4.231-21
 C(gr)           1.8495-2 1.8930-2 2.3699-2 6.9724-2

  * THERMODYNAMIC PROPERTIES FITTED TO 20000.K

              THEORETICAL ROCKET PERFORMANCE ASSUMING EQUILIBRIUM

            COMPOSITION DURING EXPANSION FROM FINITE AREA COMBUSTOR

 Pin =   319.1 PSIA
 Ac/At =  2.0000      Pinj/Pinf =  1.055598
 CASE = test___________

             REACTANT                       MOLES         ENERGY      TEMP
                                                         KJ/KG-MOL      K
 FUEL        RP-1                       100.0000000    -24717.700    298.150
 OXIDANT     O2(L)                      100.0000000    -12979.000     90.170

 O/F=    1.06427  %FUEL= 48.443259  R,EQ.RATIO= 3.200000  PHI,EQ.RATIO= 3.200000

                 INJECTOR  COMB END  THROAT     EXIT
 Pinj/P            1.0000   1.1210   1.8943   11.954
 P, BAR            22.000   19.625   11.614   1.8404
 T, K             1547.10  1526.35  1384.61  1091.88
 RHO, KG/CU M    2.6425 0 2.3896 0 1.5742 0 3.3432-1
 H, KJ/KG        -1065.87 -1115.55 -1523.79 -2690.40
 U, KJ/KG        -1898.41 -1936.82 -2261.53 -3240.91
 G, KJ/KG        -20872.4 -20700.9 -19290.4 -16700.9
 S, KJ/(KG)(K)    12.8024  12.8315  12.8315  12.8315

 M, (1/n)          15.451   15.453   15.605   16.491
 MW, MOL WT        14.924   14.918   14.979   15.057
 (dLV/dLP)t      -1.01861 -1.01875 -1.02743 -1.06711
 (dLV/dLT)p        1.1647   1.1694   1.2903   2.0220
 Cp, KJ/(KG)(K)    3.1368   3.1732   3.9977  10.4051
 GAMMAs            1.2725   1.2709   1.2414   1.1507
 SON VEL,M/SEC     1029.3   1021.6    957.0    795.9
 MACH NUMBER        0.000    0.309    1.000    2.265

 PERFORMANCE PARAMETERS

 Ae/At                      2.0000   1.0000   2.5000
 CSTAR, M/SEC               1383.4   1383.4   1383.4
 CF                         0.2279   0.6918   1.3030
 Ivac, M/SEC                2920.6   1727.9   2107.9
 Isp, M/SEC                  315.2    957.0   1802.5

 MOLE FRACTIONS

 *CH             6.893-16 3.895-16 4.146-18 9.380-24
 CH2             1.943-11 1.296-11 5.798-13 7.040-17
 CH3             2.0503-6 1.6789-6 4.2422-7 6.5516-9
 CH2OH           5.308-11 4.081-11 9.012-12 6.468-14
 CH3O            2.588-12 1.912-12 3.136-13 9.914-16
 CH4             1.0784-2 1.0588-2 1.2690-2 1.5386-2
 CH3OH           1.8542-8 1.6466-8 1.2927-8 3.1168-9
 *CO             4.7012-1 4.6949-1 4.6120-1 3.8873-1
 *CO2            2.2373-3 2.3702-3 5.1817-3 3.0869-2
 COOH            1.421-10 1.178-10 4.699-11 1.763-12
 C2H             1.717-13 1.002-13 1.368-15 6.330-21
 C2H2,acetylene  7.4232-6 5.8682-6 9.5893-7 4.9319-9
 C2H2,vinylidene 2.871-11 1.874-11 7.069-13 5.151-17
 CH2CO,ketene    1.0465-6 8.7753-7 3.1787-7 1.1149-8
 O(CH)2O         8.844-13 6.910-13 2.071-13 2.966-15
 C2H3,vinyl      5.979-10 4.178-10 3.145-11 1.458-14
 CH3CO,acetyl    3.205-10 2.440-10 5.002-11 2.960-13
 C2H4            1.4694-5 1.2634-5 5.4813-6 3.4695-7
 C2H4O,ethylen-o 1.417-13 1.072-13 2.485-14 1.807-16
 CH3CHO,ethanal  1.418 -8 1.211 -8 7.075 -9 7.306-10
 CH3COOH         3.641-11 3.223-11 3.515-11 1.586-11
 OHCH2COOH       2.180-16 1.763-16 1.364-16 1.613-17
 C2H5            1.942 -9 1.476 -9 2.947-10 1.701-12
 C2H6            9.8536-7 8.7902-7 7.0739-7 1.9775-7
 C2H5OH          1.442-11 1.187-11 7.321-12 6.571-13
 CH3OCH3         4.681-14 3.659-14 1.519-14 4.348-16
 C2O             7.483-13 4.871-13 1.826-14 1.245-18
 C3H3,1-propynl  1.811-14 1.083-14 2.470-16 3.598-21
 C3H3,2-propynl  6.625-10 4.450-10 2.478-11 4.833-15
 C3H4,allene     4.790 -9 3.546 -9 4.904-10 1.147-12
 C3H4,propyne    1.338 -8 9.977 -9 1.458 -9 3.980-12
 C3H4,cyclo-     4.635-12 3.135-12 2.183-13 7.039-17
 C3H5,allyl      2.257-10 1.624-10 2.146-11 3.841-14
 C3H6,propylene  1.735 -8 1.385 -8 4.777 -9 1.154-10
 C3H6,cyclo-     3.316-11 2.552-11 6.662-12 7.328-14
 C3H6O,propylox  1.444-16 1.022-16 1.989-17 6.492-20
 C3H6O,acetone   9.024-12 7.310-12 3.986-12 2.487-13
 C3H6O,propanal  3.074-12 2.394-12 9.684-13 2.587-14
 C3H7,n-propyl   4.773-13 3.312-13 4.625-14 7.065-17
 C3H7,i-propyl   4.824-13 3.390-13 5.212-14 1.040-16
 C3H8            2.542-10 2.076-10 1.192-10 9.363-12
 C3H8O,1propanol 3.398-15 2.566-15 1.147-15 3.008-17
 C3H8O,2propanol 3.954-15 3.027-15 1.501-15 5.380-17
 C3O2            1.585-10 1.219-10 2.313-11 1.181-13
 C4H2,butadiyne  4.419-11 2.755-11 7.335-13 1.987-17
 C4H4,1,3-cyclo- 1.393-15 8.409-16 2.448-17 6.364-22
 C4H6,butadiene  9.256-11 6.649-11 1.027-11 2.507-14
 C4H6,1butyne    3.719-12 2.537-12 2.631-13 1.984-16
 C4H6,2butyne    4.419-12 3.092-12 3.889-13 5.071-16
 C4H6,cyclo-     1.058-13 7.295-14 8.253-15 8.123-18
 C4H8,1-butene   4.170-12 3.049-12 7.522-13 5.137-15
 C4H8,cis2-buten 2.012-12 1.488-12 4.009-13 3.497-15
 C4H8,tr2-butene 2.261-12 1.672-12 4.516-13 3.996-15
 C4H8,isobutene  2.720-12 2.024-12 5.715-13 5.749-15
 C4H8,cyclo-     1.289-15 9.157-16 1.814-16 6.689-19
 C4H9,n-butyl    3.219-16 2.071-16 2.274-17 1.294-20
 C4H9,i-butyl    2.027-16 1.316-16 1.547-17 1.078-20
 C4H9,s-butyl    2.169-16 1.397-16 1.550-17 8.969-21
 C4H10,n-butane  6.656-14 4.971-14 2.020-14 4.369-16
 C4H10,isobutane 2.457-14 1.851-14 8.053-15 2.128-16
 C5H6,1,3cyclo-  1.655-12 1.166-12 1.560-13 2.488-16
 C5H8,cyclo-     1.291-14 9.104-15 1.707-15 5.371-18
 C5H10,1-pentene 8.485-16 5.690-16 1.013-16 1.973-19
 C6H2            2.823-16 1.390-16 6.097-19 9.033-26
 C6H5,phenyl     8.850-16 5.326-16 1.794-17 6.120-22
 C6H6            1.966-11 1.467-11 3.032-12 1.682-14
 C6H5OH,phenol   2.244-15 1.587-15 3.072-16 9.810-19
 C7H7,benzyl     4.628-16 2.838-16 1.548-17 1.610-21
 C7H8            3.386-14 2.350-14 3.891-15 8.418-18
 C8H8,styrene    3.052-16 1.899-16 1.371-17 2.711-21
 *H              4.4136-6 3.6831-6 7.7436-7 1.0124-8
 HCO             6.237 -8 5.019 -8 1.122 -8 1.133-10
 HCCO            2.165-11 1.506-11 1.111-12 4.581-16
 *H2             4.7642-1 4.7645-1 4.6969-1 4.4334-1
 HCHO,formaldehy 2.2535-6 2.0187-6 1.2113-6 1.8264-7
 HCOOH           3.3040-8 3.0760-8 3.5230-8 2.4814-8
 H2O             6.3139-3 6.4899-3 1.1125-2 3.4747-2
 *O              1.527-14 1.032-14 5.168-16 8.495-20
 *OH             2.284 -9 1.837 -9 4.100-10 4.214-12
 C(gr)           3.4089-2 3.4588-2 4.0107-2 8.6926-2

  * THERMODYNAMIC PROPERTIES FITTED TO 20000.K

              THEORETICAL ROCKET PERFORMANCE ASSUMING EQUILIBRIUM

            COMPOSITION DURING EXPANSION FROM FINITE AREA COMBUSTOR

 Pin =   319.1 PSIA
 Ac/At =  2.0000      Pinj/Pinf =  1.055301
 CASE = test___________

             REACTANT                       MOLES         ENERGY      TEMP
                                                         KJ/KG-MOL      K
 FUEL        RP-1                       100.0000000    -24717.700    298.150
 OXIDANT     O2(L)                      100.0000000    -12979.000     90.170

 O/F=    1.03202  %FUEL= 49.212112  R,EQ.RATIO= 3.300000  PHI,EQ.RATIO= 3.300000

                 INJECTOR  COMB END  THROAT     EXIT
 Pinj/P            1.0000   1.1203   1.8879   11.864
 P, BAR            22.000   19.637   11.653   1.8543
 T, K             1519.90  1500.03  1366.95  1086.74
 RHO, KG/CU M    2.6968 0 2.4395 0 1.6055 0 3.3980-1
 H, KJ/KG        -1076.35 -1124.77 -1523.51 -2673.66
 U, KJ/KG        -1892.12 -1929.75 -2249.33 -3219.36
 G, KJ/KG        -20462.4 -20300.7 -18998.3 -16566.2
 S, KJ/(KG)(K)    12.7549  12.7838  12.7838  12.7838

 M, (1/n)          15.491   15.493   15.659   16.558
 MW, MOL WT        14.734   14.727   14.787   14.850
 (dLV/dLP)t      -1.02166 -1.02182 -1.03107 -1.06991
 (dLV/dLT)p        1.1964   1.2019   1.3342   2.0655
 Cp, KJ/(KG)(K)    3.3374   3.3823   4.3062  10.7567
 GAMMAs            1.2635   1.2617   1.2322   1.1484
 SON VEL,M/SEC     1015.2   1007.8    945.7    791.6
 MACH NUMBER        0.000    0.309    1.000    2.258

 PERFORMANCE PARAMETERS

 Ae/At                      2.0000   1.0000   2.5000
 CSTAR, M/SEC               1373.0   1373.0   1373.0
 CF                         0.2267   0.6888   1.3018
 Ivac, M/SEC                2897.9   1713.2   2092.7
 Isp, M/SEC                  311.2    945.7   1787.4

 MOLE FRACTIONS

 *CH             2.985-16 1.694-16 2.100-18 6.769-24
 CH2             1.134-11 7.590-12 3.745-13 5.725-17
 CH3             1.6973-6 1.3918-6 3.6425-7 6.1217-9
 CH2OH           4.624-11 3.561-11 8.055-12 6.092-14
 CH3O            2.140-12 1.585-12 2.692-13 9.173-16
 CH4             1.2278-2 1.2055-2 1.4143-2 1.6344-2
 CH3OH           2.1149-8 1.8788-8 1.4405-8 3.2742-9
 *CO             4.5490-1 4.5418-1 4.4487-1 3.7174-1
 *CO2            2.6755-3 2.8319-3 5.9285-3 3.1636-2
 COOH            1.333-10 1.107-10 4.433-11 1.662-12
 C2H             7.761-14 4.550-14 7.170-16 4.641-21
 C2H2,acetylene  5.4169-6 4.2899-6 7.4178-7 4.3617-9
 C2H2,vinylidene 1.628-11 1.066-11 4.458-13 4.140-17
 CH2CO,ketene    9.4365-7 7.9209-7 2.9137-7 1.0555-8
 O(CH)2O         8.309-13 6.502-13 1.962-13 2.824-15
 C2H3,vinyl      4.017-10 2.815-10 2.281-11 1.259-14
 CH3CO,acetyl    2.756-10 2.101-10 4.427-11 2.776-13
 C2H4            1.4048-5 1.2089-5 5.3017-6 3.4494-7
 C2H4O,ethylen-o 1.309-13 9.922-14 2.338-14 1.755-16
 CH3CHO,ethanal  1.537 -8 1.314 -8 7.567 -9 7.531-10
 CH3COOH         4.729-11 4.188-11 4.353-11 1.734-11
 OHCH2COOH       2.873-16 2.325-16 1.709-16 1.755-17
 C2H5            1.709 -9 1.301 -9 2.674-10 1.652-12
 C2H6            1.1598-6 1.0352-6 8.1403-7 2.1603-7
 C2H5OH          1.746-11 1.439-11 8.613-12 7.177-13
 CH3OCH3         5.294-14 4.143-14 1.692-14 4.629-16
 C2O             4.122-13 2.692-13 1.118-14 9.645-19
 C3H3,1-propynl  9.908-15 5.946-15 1.517-16 2.876-21
 C3H3,2-propynl  4.226-10 2.847-10 1.724-11 4.095-15
 C3H4,allene     3.760 -9 2.789 -9 4.046-10 1.059-12
 C3H4,propyne    1.060 -8 7.923 -9 1.212 -9 3.688-12
 C3H4,cyclo-     3.232-12 2.192-12 1.637-13 6.219-17
 C3H5,allyl      1.849-10 1.333-10 1.839-11 3.635-14
 C3H6,propylene  1.765 -8 1.411 -8 4.885 -9 1.193-10
 C3H6,cyclo-     3.213-11 2.477-11 6.556-12 7.448-14
 C3H6O,propylox  1.433-16 1.016-16 1.994-17 6.586-20
 C3H6O,acetone   1.070-11 8.675-12 4.609-12 2.694-13
 C3H6O,propanal  3.460-12 2.699-12 1.074-12 2.750-14
 C3H7,n-propyl   4.371-13 3.040-13 4.358-14 7.082-17
 C3H7,i-propyl   4.492-13 3.164-13 4.977-14 1.049-16
 C3H8            3.124-10 2.554-10 1.429-10 1.057-11
 C3H8O,1propanol 4.308-15 3.258-15 1.409-15 3.397-17
 C3H8O,2propanol 5.103-15 3.912-15 1.871-15 6.121-17
 C3O2            1.243-10 9.581-11 1.884-11 1.033-13
 C4H2,butadiyne  2.359-11 1.476-11 4.408-13 1.563-17
 C4H4,1,3-cyclo- 8.359-16 5.064-16 1.626-17 5.314-22
 C4H6,butadiene  8.192-11 5.898-11 9.398-12 2.464-14
 C4H6,1butyne    3.075-12 2.103-12 2.277-13 1.899-16
 C4H6,2butyne    3.778-12 2.649-12 3.457-13 4.913-16
 C4H6,cyclo-     8.874-14 6.136-14 7.230-15 7.822-18
 C4H8,1-butene   4.430-12 3.246-12 8.017-13 5.490-15
 C4H8,cis2-buten 2.171-12 1.609-12 4.325-13 3.758-15
 C4H8,tr2-butene 2.440-12 1.808-12 4.874-13 4.295-15
 C4H8,isobutene  2.958-12 2.206-12 6.206-13 6.197-15
 C4H8,cyclo-     1.319-15 9.386-16 1.876-16 7.052-19
 C4H9,n-butyl    3.129-16 2.019-16 2.262-17 1.348-20
 C4H9,i-butyl    1.994-16 1.298-16 1.555-17 1.129-20
 C4H9,s-butyl    2.112-16 1.365-16 1.544-17 9.350-21
 C4H10,n-butane  8.529-14 6.380-14 2.520-14 5.094-16
 C4H10,isobutane 3.186-14 2.404-14 1.014-14 2.492-16
 C5H6,1,3cyclo-  1.429-12 1.010-12 1.399-13 2.422-16
 C5H8,cyclo-     1.308-14 9.244-15 1.751-15 5.642-18
 C5H10,1-pentene 9.436-16 6.342-16 1.126-16 2.179-19
 C6H2            1.104-16 5.465-17 2.851-19 6.322-26
 C6H5,phenyl     5.728-16 3.460-16 1.271-17 5.301-22
 C6H6            1.830-11 1.369-11 2.888-12 1.683-14
 C6H5OH,phenol   2.224-15 1.576-15 3.076-16 9.947-19
 C7H7,benzyl     3.601-16 2.216-16 1.280-17 1.520-21
 C7H8            3.358-14 2.336-14 3.923-15 8.767-18
 C8H8,styrene    2.623-16 1.638-16 1.231-17 2.676-21
 *H              3.1937-6 2.6697-6 5.9427-7 8.8742-9
 HCO             4.919 -8 3.964 -8 9.202 -9 1.012-10
 HCCO            1.410-11 9.837-12 7.813-13 3.808-16
 *H2             4.7378-1 4.7381-1 4.6668-1 4.4075-1
 HCHO,formaldehy 2.2167-6 1.9867-6 1.1911-6 1.7864-7
 HCOOH           3.9095-8 3.6403-8 4.0240-8 2.5780-8
 H2O             7.4434-3 7.6462-3 1.2659-2 3.6371-2
 *O              8.834-15 5.988-15 3.298-16 6.715-20
 *OH             1.800 -9 1.450 -9 3.364-10 3.766-12
 C(gr)           4.8890-2 4.9457-2 5.5708-2 1.0316-1

  * THERMODYNAMIC PROPERTIES FITTED TO 20000.K

              THEORETICAL ROCKET PERFORMANCE ASSUMING EQUILIBRIUM

            COMPOSITION DURING EXPANSION FROM FINITE AREA COMBUSTOR

 Pin =   319.1 PSIA
 Ac/At =  2.0000      Pinj/Pinf =  1.055023
 CASE = test___________

             REACTANT                       MOLES         ENERGY      TEMP
                                                         KJ/KG-MOL      K
 FUEL        RP-1                       100.0000000    -24717.700    298.150
 OXIDANT     O2(L)                      100.0000000    -12979.000     90.170

 O/F=    1.00167  %FUEL= 49.958371  R,EQ.RATIO= 3.400000  PHI,EQ.RATIO= 3.400000

                 INJECTOR  COMB END  THROAT     EXIT
 Pinj/P            1.0000   1.1197   1.8821   11.785
 P, BAR            22.000   19.648   11.689   1.8668
 T, K             1495.30  1476.25  1350.96  1081.75
 RHO, KG/CU M    2.7492 0 2.4875 0 1.6356 0 3.4506-1
 H, KJ/KG        -1086.52 -1133.78 -1523.83 -2658.51
 U, KJ/KG        -1886.74 -1923.67 -2238.51 -3199.50
 G, KJ/KG        -20088.3 -19935.7 -18730.1 -16436.0
 S, KJ/(KG)(K)    12.7076  12.7363  12.7363  12.7363

 M, (1/n)          15.537   15.539   15.717   16.626
 MW, MOL WT        14.558   14.551   14.608   14.656
 (dLV/dLP)t      -1.02490 -1.02509 -1.03479 -1.07260
 (dLV/dLT)p        1.2309   1.2373   1.3797   2.1073
 Cp, KJ/(KG)(K)    3.5575   3.6111   4.6268  11.0903
 GAMMAs            1.2547   1.2527   1.2238   1.1463
 SON VEL,M/SEC     1002.0    994.7    935.2    787.5
 MACH NUMBER        0.000    0.309    1.000    2.252

 PERFORMANCE PARAMETERS

 Ae/At                      2.0000   1.0000   2.5000
 CSTAR, M/SEC               1363.3   1363.3   1363.3
 CF                         0.2255   0.6860   1.3006
 Ivac, M/SEC                2876.6   1699.4   2078.2
 Isp, M/SEC                  307.5    935.2   1773.1

 MOLE FRACTIONS

 *CH             1.363-16 7.779-17 1.116-18 4.920-24
 CH2             6.847-12 4.599-12 2.494-13 4.676-17
 CH3             1.4208-6 1.1669-6 3.1595-7 5.7241-9
 CH2OH           4.056-11 3.129-11 7.242-12 5.734-14
 CH3O            1.788-12 1.327-12 2.331-13 8.484-16
 CH4             1.3850-2 1.3596-2 1.5628-2 1.7318-2
 CH3OH           2.3868-8 2.1207-8 1.5889-8 3.4271-9
 *CO             4.4036-1 4.3954-1 4.2927-1 3.5570-1
 *CO2            3.1547-3 3.3351-3 6.6928-3 3.2351-2
 COOH            1.252-10 1.041-10 4.184-11 1.567-12
 C2H             3.689-14 2.174-14 3.935-16 3.427-21
 C2H2,acetylene  4.0305-6 3.1987-6 5.8405-7 3.8668-9
 C2H2,vinylidene 9.564-12 6.286-12 2.903-13 3.343-17
 CH2CO,ketene    8.5499-7 7.1842-7 2.6814-7 9.9893-9
 O(CH)2O         7.817-13 6.125-13 1.859-13 2.683-15
 C2H3,vinyl      2.766-10 1.944-10 1.692-11 1.090-14
 CH3CO,acetyl    2.388-10 1.824-10 3.944-11 2.603-13
 C2H4            1.3454-5 1.1590-5 5.1360-6 3.4254-7
 C2H4O,ethylen-o 1.213-13 9.210-14 2.204-14 1.702-16
 CH3CHO,ethanal  1.653 -8 1.414 -8 8.035 -9 7.738-10
 CH3COOH         6.023-11 5.333-11 5.288-11 1.885-11
 OHCH2COOH       3.707-16 3.001-16 2.097-16 1.898-17
 C2H5            1.514 -9 1.155 -9 2.440-10 1.603-12
 C2H6            1.3492-6 1.2046-6 9.2652-7 2.3501-7
 C2H5OH          2.084-11 1.718-11 9.991-12 7.797-13
 CH3OCH3         5.926-14 4.643-14 1.865-14 4.904-16
 C2O             2.355-13 1.544-13 7.079-15 7.509-19
 C3H3,1-propynl  5.629-15 3.392-15 9.643-17 2.308-21
 C3H3,2-propynl  2.772-10 1.874-10 1.230-11 3.479-15
 C3H4,allene     2.994 -9 2.226 -9 3.382-10 9.785-13
 C3H4,propyne    8.521 -9 6.381 -9 1.020 -9 3.418-12
 C3H4,cyclo-     2.304-12 1.568-12 1.252-13 5.502-17
 C3H5,allyl      1.532-10 1.108-10 1.592-11 3.439-14
 C3H6,propylene  1.791 -8 1.434 -8 4.984 -9 1.230-10
 C3H6,cyclo-     3.116-11 2.407-11 6.455-12 7.549-14
 C3H6O,propylox  1.419-16 1.009-16 1.994-17 6.655-20
 C3H6O,acetone   1.252-11 1.016-11 5.262-12 2.903-13
 C3H6O,propanal  3.857-12 3.012-12 1.181-12 2.910-14
 C3H7,n-propyl   4.019-13 2.802-13 4.121-14 7.078-17
 C3H7,i-propyl   4.196-13 2.962-13 4.764-14 1.054-16
 C3H8            3.784-10 3.096-10 1.689-10 1.186-11
 C3H8O,1propanol 5.366-15 4.063-15 1.701-15 3.809-17
 C3H8O,2propanol 6.463-15 4.959-15 2.290-15 6.911-17
 C3O2            9.885-11 7.629-11 1.551-11 9.051-14
 C4H2,butadiyne  1.310-11 8.231-12 2.745-13 1.235-17
 C4H4,1,3-cyclo- 5.177-16 3.150-16 1.111-17 4.449-22
 C4H6,butadiene  7.299-11 5.269-11 8.647-12 2.417-14
 C4H6,1butyne    2.570-12 1.763-12 1.989-13 1.815-16
 C4H6,2butyne    3.258-12 2.291-12 3.095-13 4.751-16
 C4H6,cyclo-     7.520-14 5.215-14 6.390-15 7.521-18
 C4H8,1-butene   4.682-12 3.436-12 8.497-13 5.839-15
 C4H8,cis2-buten 2.327-12 1.727-12 4.636-13 4.017-15
 C4H8,tr2-butene 2.616-12 1.943-12 5.227-13 4.594-15
 C4H8,isobutene  3.195-12 2.386-12 6.694-13 6.646-15
 C4H8,cyclo-     1.345-15 9.593-16 1.933-16 7.401-19
 C4H9,n-butyl    3.043-16 1.969-16 2.250-17 1.399-20
 C4H9,i-butyl    1.961-16 1.280-16 1.560-17 1.176-20
 C4H9,s-butyl    2.058-16 1.333-16 1.537-17 9.699-21
 C4H10,n-butane  1.074-13 8.045-14 3.091-14 5.892-16
 C4H10,isobutane 4.056-14 3.065-14 1.255-14 2.895-16
 C5H6,1,3cyclo-  1.244-12 8.814-13 1.263-13 2.353-16
 C5H8,cyclo-     1.322-14 9.365-15 1.792-15 5.901-18
 C5H10,1-pentene 1.040-15 7.008-16 1.241-16 2.391-19
 C6H5,phenyl     3.809-16 2.310-16 9.220-18 4.597-22
 C6H6            1.709-11 1.281-11 2.758-12 1.681-14
 C6H5OH,phenol   2.201-15 1.563-15 3.073-16 1.005-18
 C7H7,benzyl     2.845-16 1.757-16 1.073-17 1.433-21
 C7H8            3.328-14 2.321-14 3.950-15 9.092-18
 C8H8,styrene    2.273-16 1.424-16 1.114-17 2.634-21
 *H              2.3586-6 1.9756-6 4.6457-7 7.8039-9
 HCO             3.932 -8 3.173 -8 7.639 -9 9.050-11
 HCCO            9.424-12 6.595-12 5.621-13 3.176-16
 *H2             4.7097-1 4.7100-1 4.6360-1 4.3815-1
 HCHO,formaldehy 2.1787-6 1.9535-6 1.1700-6 1.7455-7
 HCOOH           4.5645-8 4.2492-8 4.5359-8 2.6690-8
 H2O             8.6660-3 8.8946-3 1.4239-2 3.7979-2
 *O              5.287-15 3.597-15 2.169-16 5.332-20
 *OH             1.438 -9 1.160 -9 2.793-10 3.370-12
 C(gr)           6.2979-2 6.3615-2 7.0561-2 1.1849-1

  * THERMODYNAMIC PROPERTIES FITTED TO 20000.K

              THEORETICAL ROCKET PERFORMANCE ASSUMING EQUILIBRIUM

            COMPOSITION DURING EXPANSION FROM FINITE AREA COMBUSTOR

 Pin =   319.1 PSIA
 Ac/At =  2.0000      Pinj/Pinf =  1.054766
 CASE = test___________

             REACTANT                       MOLES         ENERGY      TEMP
                                                         KJ/KG-MOL      K
 FUEL        RP-1                       100.0000000    -24717.700    298.150
 OXIDANT     O2(L)                      100.0000000    -12979.000     90.170

 O/F=    0.97305  %FUEL= 50.683017  R,EQ.RATIO= 3.500000  PHI,EQ.RATIO= 3.500000

                 INJECTOR  COMB END  THROAT     EXIT
 Pinj/P            1.0000   1.1191   1.8769   11.714
 P, BAR            22.000   19.659   11.722   1.8780
 T, K             1473.07  1454.76  1336.43  1076.92
 RHO, KG/CU M    2.7997 0 2.5338 0 1.6644 0 3.5014-1
 H, KJ/KG        -1096.39 -1142.59 -1524.67 -2644.75
 U, KJ/KG        -1882.18 -1918.46 -2228.93 -3181.11
 G, KJ/KG        -19746.6 -19602.4 -18483.0 -16310.0
 S, KJ/(KG)(K)    12.6608  12.6893  12.6893  12.6893

 M, (1/n)          15.587   15.590   15.778   16.694
 MW, MOL WT        14.396   14.387   14.441   14.474
 (dLV/dLP)t      -1.02831 -1.02852 -1.03855 -1.07519
 (dLV/dLT)p        1.2678   1.2751   1.4263   2.1473
 Cp, KJ/(KG)(K)    3.7946   3.8571   4.9554  11.4053
 GAMMAs            1.2463   1.2442   1.2162   1.1444
 SON VEL,M/SEC      989.6    982.5    925.5    783.5
 MACH NUMBER        0.000    0.309    1.000    2.246

 PERFORMANCE PARAMETERS

 Ae/At                      2.0000   1.0000   2.5000
 CSTAR, M/SEC               1354.1   1354.1   1354.1
 CF                         0.2245   0.6835   1.2996
 Ivac, M/SEC                2856.4   1686.5   2064.5
 Isp, M/SEC                  304.0    925.5   1759.7

 MOLE FRACTIONS

 CH2             4.272-12 2.881-12 1.708-13 3.834-17
 CH3             1.2025-6 9.8926-7 2.7660-7 5.3565-9
 CH2OH           3.582-11 2.768-11 6.545-12 5.394-14
 CH3O            1.510-12 1.123-12 2.034-13 7.846-16
 CH4             1.5483-2 1.5195-2 1.7135-2 1.8306-2
 CH3OH           2.6664-8 2.3691-8 1.7366-8 3.5753-9
 *CO             4.2642-1 4.2551-1 4.1436-1 3.4055-1
 *CO2            3.6687-3 3.8728-3 7.4643-3 3.3013-2
 COOH            1.178-10 9.798-11 3.950-11 1.475-12
 C2H             1.842-14 1.092-14 2.250-16 2.548-21
 C2H2,acetylene  3.0563-6 2.4312-6 4.6732-7 3.4365-9
 C2H2,vinylidene 5.817-12 3.839-12 1.947-13 2.711-17
 CH2CO,ketene    7.7827-7 6.5462-7 2.4765-7 9.4522-9
 O(CH)2O         7.362-13 5.775-13 1.762-13 2.546-15
 C2H3,vinyl      1.951-10 1.376-10 1.281-11 9.462-15
 CH3CO,acetyl    2.085-10 1.596-10 3.534-11 2.439-13
 C2H4            1.2909-5 1.1131-5 4.9826-6 3.3982-7
 C2H4O,ethylen-o 1.128-13 8.576-14 2.081-14 1.648-16
 CH3CHO,ethanal  1.767 -8 1.512 -8 8.477 -9 7.928-10
 CH3COOH         7.525-11 6.660-11 6.315-11 2.038-11
 OHCH2COOH       4.683-16 3.791-16 2.522-16 2.038-17
 C2H5            1.351 -9 1.033 -9 2.240-10 1.554-12
 C2H6            1.5520-6 1.3858-6 1.0441-6 2.5464-7
 C2H5OH          2.452-11 2.022-11 1.144-11 8.427-13
 CH3OCH3         6.571-14 5.152-14 2.037-14 5.171-16
 C2O             1.395-13 9.181-14 4.617-15 5.875-19
 C3H3,1-propynl  3.317-15 2.009-15 6.323-17 1.859-21
 C3H3,2-propynl  1.868-10 1.268-10 8.977-12 2.964-15
 C3H4,allene     2.419 -9 1.803 -9 2.860-10 9.046-13
 C3H4,propyne    6.941 -9 5.210 -9 8.686-10 3.170-12
 C3H4,cyclo-     1.678-12 1.146-12 9.751-14 4.875-17
 C3H5,allyl      1.285-10 9.314-11 1.391-11 3.252-14
 C3H6,propylene  1.813 -8 1.453 -8 5.073 -9 1.265-10
 C3H6,cyclo-     3.025-11 2.341-11 6.357-12 7.634-14
 C3H6O,propylox  1.404-16 9.994-17 1.989-17 6.700-20
 C3H6O,acetone   1.446-11 1.174-11 5.937-12 3.112-13
 C3H6O,propanal  4.259-12 3.329-12 1.285-12 3.064-14
 C3H7,n-propyl   3.712-13 2.594-13 3.908-14 7.055-17
 C3H7,i-propyl   3.932-13 2.782-13 4.569-14 1.056-16
 C3H8            4.518-10 3.699-10 1.972-10 1.323-11
 C3H8O,1propanol 6.572-15 4.979-15 2.022-15 4.242-17
 C3H8O,2propanol 8.039-15 6.172-15 2.756-15 7.750-17
 C3O2            7.957-11 6.152-11 1.290-11 7.939-14
 C4H2,butadiyne  7.559-12 4.772-12 1.766-13 9.808-18
 C4H4,1,3-cyclo- 3.308-16 2.022-16 7.795-18 3.735-22
 C4H6,butadiene  6.548-11 4.738-11 7.997-12 2.367-14
 C4H6,1butyne    2.172-12 1.494-12 1.753-13 1.732-16
 C4H6,2butyne    2.834-12 1.998-12 2.791-13 4.588-16
 C4H6,cyclo-     6.437-14 4.476-14 5.692-15 7.222-18
 C4H8,1-butene   4.924-12 3.620-12 8.962-13 6.182-15
 C4H8,cis2-buten 2.480-12 1.844-12 4.941-13 4.275-15
 C4H8,tr2-butene 2.789-12 2.074-12 5.573-13 4.891-15
 C4H8,isobutene  3.429-12 2.565-12 7.174-13 7.095-15
 C4H8,cyclo-     1.368-15 9.779-16 1.987-16 7.735-19
 C4H9,n-butyl    2.961-16 1.921-16 2.236-17 1.444-20
 C4H9,i-butyl    1.928-16 1.262-16 1.563-17 1.220-20
 C4H9,s-butyl    2.005-16 1.303-16 1.529-17 1.002-20
 C4H10,n-butane  1.330-13 9.972-14 3.733-14 6.767-16
 C4H10,isobutane 5.073-14 3.838-14 1.529-14 3.340-16
 C5H6,1,3cyclo-  1.092-12 7.757-13 1.148-13 2.283-16
 C5H8,cyclo-     1.334-14 9.468-15 1.830-15 6.147-18
 C5H10,1-pentene 1.138-15 7.681-16 1.357-16 2.607-19
 C6H5,phenyl     2.600-16 1.584-16 6.835-18 3.993-22
 C6H6            1.602-11 1.203-11 2.640-12 1.675-14
 C6H5OH,phenol   2.176-15 1.548-15 3.063-16 1.011-18
 C7H7,benzyl     2.280-16 1.414-16 9.093-18 1.349-21
 C7H8            3.296-14 2.303-14 3.971-15 9.393-18
 C8H8,styrene    1.987-16 1.249-16 1.013-17 2.586-21
 *H              1.7767-6 1.4915-6 3.6933-7 6.8841-9
 HCO             3.184 -8 2.574 -8 6.411 -9 8.106-11
 HCCO            6.460-12 4.535-12 4.130-13 2.656-16
 *H2             4.6801-1 4.6805-1 4.6046-1 4.3557-1
 HCHO,formaldehy 2.1397-6 1.9193-6 1.1481-6 1.7040-7
 HCOOH           5.2594-8 4.8938-8 5.0518-8 2.7540-8
 H2O             9.9678-3 1.0220-2 1.5850-2 3.9566-2
 *O              3.270-15 2.233-15 1.466-16 4.254-20
 *OH             1.164 -9 9.411-10 2.345-10 3.021-12
 C(gr)           7.6422-2 7.7127-2 8.4719-2 1.3300-1

  * THERMODYNAMIC PROPERTIES FITTED TO 20000.K

              THEORETICAL ROCKET PERFORMANCE ASSUMING EQUILIBRIUM

            COMPOSITION DURING EXPANSION FROM FINITE AREA COMBUSTOR

 Pin =   319.1 PSIA
 Ac/At =  2.0000      Pinj/Pinf =  1.054530
 CASE = test___________

             REACTANT                       MOLES         ENERGY      TEMP
                                                         KJ/KG-MOL      K
 FUEL        RP-1                       100.0000000    -24717.700    298.150
 OXIDANT     O2(L)                      100.0000000    -12979.000     90.170

 O/F=    0.94602  %FUEL= 51.386975  R,EQ.RATIO= 3.600000  PHI,EQ.RATIO= 3.600000

                 INJECTOR  COMB END  THROAT     EXIT
 Pinj/P            1.0000   1.1186   1.8722   11.651
 P, BAR            22.000   19.668   11.751   1.8882
 T, K             1452.93  1435.31  1323.16  1072.23
 RHO, KG/CU M    2.8484 0 2.5783 0 1.6921 0 3.5504-1
 H, KJ/KG        -1105.99 -1151.20 -1525.95 -2632.20
 U, KJ/KG        -1878.35 -1914.03 -2220.43 -3164.03
 G, KJ/KG        -19433.9 -19297.3 -18254.3 -16188.0
 S, KJ/(KG)(K)    12.6144  12.6427  12.6427  12.6427

 M, (1/n)          15.641   15.644   15.841   16.763
 MW, MOL WT        14.245   14.236   14.285   14.303
 (dLV/dLP)t      -1.03183 -1.03206 -1.04231 -1.07767
 (dLV/dLT)p        1.3067   1.3148   1.4734   2.1853
 Cp, KJ/(KG)(K)    4.0461   4.1173   5.2882  11.7012
 GAMMAs            1.2384   1.2363   1.2094   1.1426
 SON VEL,M/SEC      978.0    971.1    916.5    779.5
 MACH NUMBER        0.000    0.310    1.000    2.241

 PERFORMANCE PARAMETERS

 Ae/At                      2.0000   1.0000   2.5000
 CSTAR, M/SEC               1345.3   1345.3   1345.3
 CF                         0.2235   0.6812   1.2986
 Ivac, M/SEC                2837.4   1674.2   2051.5
 Isp, M/SEC                  300.7    916.5   1747.1

 MOLE FRACTIONS

 CH2             2.750-12 1.863-12 1.199-13 3.158-17
 CH3             1.0284-6 8.4754-7 2.4418-7 5.0168-9
 CH2OH           3.184-11 2.464-11 5.942-12 5.072-14
 CH3O            1.287-12 9.593-13 1.788-13 7.256-16
 CH4             1.7164-2 1.6839-2 1.8658-2 1.9308-2
 CH3OH           2.9501-8 2.6208-8 1.8824-8 3.7184-9
 *CO             4.1305-1 4.1205-1 4.0010-1 3.2621-1
 *CO2            4.2101-3 4.4372-3 8.2341-3 3.3623-2
 COOH            1.110-10 9.235-11 3.731-11 1.388-12
 C2H             9.636-15 5.744-15 1.336-16 1.907-21
 C2H2,acetylene  2.3599-6 1.8817-6 3.7940-7 3.0613-9
 C2H2,vinylidene 3.657-12 2.424-12 1.341-13 2.208-17
 CH2CO,ketene    7.1157-7 5.9913-7 2.2947-7 8.9433-9
 O(CH)2O         6.941-13 5.451-13 1.670-13 2.413-15
 C2H3,vinyl      1.408-10 9.962-11 9.871-12 8.233-15
 CH3CO,acetyl    1.834-10 1.406-10 3.183-11 2.285-13
 C2H4            1.2410-5 1.0711-5 4.8403-6 3.3684-7
 C2H4O,ethylen-o 1.051-13 8.009-14 1.969-14 1.593-16
 CH3CHO,ethanal  1.875 -8 1.605 -8 8.890 -9 8.101-10
 CH3COOH         9.232-11 8.165-11 7.423-11 2.193-11
 OHCH2COOH       5.798-16 4.691-16 2.980-16 2.177-17
 C2H5            1.214 -9 9.296-10 2.066-10 1.505-12
 C2H6            1.7664-6 1.5774-6 1.1662-6 2.7492-7
 C2H5OH          2.847-11 2.348-11 1.296-11 9.065-13
 CH3OCH3         7.218-14 5.664-14 2.206-14 5.431-16
 C2O             8.546-14 5.649-14 3.095-15 4.619-19
 C3H3,1-propynl  2.025-15 1.232-15 4.263-17 1.504-21
 C3H3,2-propynl  1.292-10 8.802-11 6.691-12 2.533-15
 C3H4,allene     1.981 -9 1.480 -9 2.445-10 8.368-13
 C3H4,propyne    5.728 -9 4.311 -9 7.471-10 2.942-12
 C3H4,cyclo-     1.248-12 8.554-13 7.720-14 4.326-17
 C3H5,allyl      1.089-10 7.917-11 1.226-11 3.074-14
 C3H6,propylene  1.832 -8 1.471 -8 5.153 -9 1.297-10
 C3H6,cyclo-     2.940-11 2.279-11 6.262-12 7.703-14
 C3H6O,propylox  1.386-16 9.889-17 1.980-17 6.725-20
 C3H6O,acetone   1.650-11 1.340-11 6.629-12 3.322-13
 C3H6O,propanal  4.662-12 3.646-12 1.388-12 3.214-14
 C3H7,n-propyl   3.443-13 2.412-13 3.716-14 7.017-17
 C3H7,i-propyl   3.697-13 2.622-13 4.391-14 1.056-16
 C3H8            5.325-10 4.362-10 2.276-10 1.469-11
 C3H8O,1propanol 7.919-15 6.003-15 2.369-15 4.695-17
 C3H8O,2propanol 9.829-15 7.550-15 3.268-15 8.635-17
 C3O2            6.481-11 5.020-11 1.082-11 6.972-14
 C4H2,butadiyne  4.525-12 2.871-12 1.170-13 7.827-18
 C4H4,1,3-cyclo- 2.177-16 1.337-16 5.598-18 3.144-22
 C4H6,butadiene  5.912-11 4.288-11 7.430-12 2.315-14
 C4H6,1butyne    1.854-12 1.279-12 1.557-13 1.652-16
 C4H6,2butyne    2.486-12 1.757-12 2.533-13 4.425-16
 C4H6,cyclo-     5.564-14 3.880-14 5.106-15 6.927-18
 C4H8,1-butene   5.155-12 3.796-12 9.409-13 6.520-15
 C4H8,cis2-buten 2.628-12 1.957-12 5.237-13 4.531-15
 C4H8,tr2-butene 2.957-12 2.202-12 5.910-13 5.186-15
 C4H8,isobutene  3.658-12 2.740-12 7.647-13 7.543-15
 C4H8,cyclo-     1.389-15 9.947-16 2.036-16 8.054-19
 C4H9,n-butyl    2.883-16 1.876-16 2.221-17 1.486-20
 C4H9,i-butyl    1.895-16 1.244-16 1.565-17 1.260-20
 C4H9,s-butyl    1.956-16 1.274-16 1.520-17 1.031-20
 C4H10,n-butane  1.621-13 1.217-13 4.448-14 7.720-16
 C4H10,isobutane 6.243-14 4.726-14 1.835-14 3.826-16
 C5H6,1,3cyclo-  9.662-13 6.881-13 1.049-13 2.212-16
 C5H8,cyclo-     1.343-14 9.556-15 1.864-15 6.379-18
 C5H10,1-pentene 1.235-15 8.356-16 1.473-16 2.827-19
 C6H5,phenyl     1.820-16 1.114-16 5.168-18 3.473-22
 C6H6            1.507-11 1.134-11 2.533-12 1.665-14
 C6H5OH,phenol   2.147-15 1.530-15 3.047-16 1.014-18
 C7H7,benzyl     1.854-16 1.154-16 7.788-18 1.269-21
 C7H8            3.263-14 2.285-14 3.988-15 9.670-18
 C8H8,styrene    1.750-16 1.104-16 9.275-18 2.532-21
 *H              1.3638-6 1.1476-6 2.9810-7 6.0910-9
 HCO             2.611 -8 2.115 -8 5.434 -9 7.272-11
 HCCO            4.534-12 3.193-12 3.092-13 2.228-16
 *H2             4.6494-1 4.6500-1 4.5730-1 4.3299-1
 HCHO,formaldehy 2.0998-6 1.8841-6 1.1257-6 1.6623-7
 HCOOH           5.9843-8 5.5645-8 5.5656-8 2.8331-8
 H2O             1.1334-2 1.1608-2 1.7477-2 4.1131-2
 *O              2.086-15 1.430-15 1.016-16 3.409-20
 *OH             9.545-10 7.729-10 1.988-10 2.712-12
 C(gr)           8.9272-2 9.0045-2 9.8226-2 1.4674-1

  * THERMODYNAMIC PROPERTIES FITTED TO 20000.K

              THEORETICAL ROCKET PERFORMANCE ASSUMING EQUILIBRIUM

            COMPOSITION DURING EXPANSION FROM FINITE AREA COMBUSTOR

 Pin =   319.1 PSIA
 Ac/At =  2.0000      Pinj/Pinf =  1.054313
 CASE = test___________

             REACTANT                       MOLES         ENERGY      TEMP
                                                         KJ/KG-MOL      K
 FUEL        RP-1                       100.0000000    -24717.700    298.150
 OXIDANT     O2(L)                      100.0000000    -12979.000     90.170

 O/F=    0.92045  %FUEL= 52.071120  R,EQ.RATIO= 3.700000  PHI,EQ.RATIO= 3.700000

                 INJECTOR  COMB END  THROAT     EXIT
 Pinj/P            1.0000   1.1181   1.8680   11.594
 P, BAR            22.000   19.677   11.777   1.8975
 T, K             1434.67  1417.66  1311.00  1067.68
 RHO, KG/CU M    2.8953 0 2.6212 0 1.7187 0 3.5977-1
 H, KJ/KG        -1115.31 -1159.62 -1527.60 -2620.71
 U, KJ/KG        -1875.16 -1910.30 -2212.86 -3148.11
 G, KJ/KG        -19147.0 -19017.3 -18041.8 -16069.9
 S, KJ/(KG)(K)    12.5686  12.5966  12.5966  12.5966

 M, (1/n)          15.699   15.702   15.907   16.832
 MW, MOL WT        14.104   14.094   14.139   14.143
 (dLV/dLP)t      -1.03543 -1.03567 -1.04605 -1.08003
 (dLV/dLT)p        1.3472   1.3561   1.5206   2.2215
 Cp, KJ/(KG)(K)    4.3087   4.3884   5.6219  11.9777
 GAMMAs            1.2310   1.2288   1.2033   1.1409
 SON VEL,M/SEC      967.2    960.4    908.1    775.7
 MACH NUMBER        0.000    0.310    1.000    2.237

 PERFORMANCE PARAMETERS

 Ae/At                      2.0000   1.0000   2.5000
 CSTAR, M/SEC               1337.0   1337.0   1337.0
 CF                         0.2227   0.6792   1.2978
 Ivac, M/SEC                2819.3   1662.7   2039.1
 Isp, M/SEC                  297.7    908.1   1735.2

 MOLE FRACTIONS

 CH2             1.824-12 1.240-12 8.616-14 2.611-17
 CH3             8.8828-7 7.3333-7 2.1719-7 4.7028-9
 CH2OH           2.847-11 2.207-11 5.418-12 4.768-14
 CH3O            1.107-12 8.269-13 1.581-13 6.711-16
 CH4             1.8878-2 1.8515-2 2.0190-2 2.0322-2
 CH3OH           3.2347-8 2.8731-8 2.0253-8 3.8563-9
 *CO             4.0021-1 3.9912-1 3.8646-1 3.1263-1
 *CO2            4.7717-3 5.0207-3 8.9946-3 3.4181-2
 COOH            1.046-10 8.712-11 3.525-11 1.305-12
 C2H             5.266-15 3.157-15 8.206-17 1.436-21
 C2H2,acetylene  1.8533-6 1.4813-6 3.1208-7 2.7336-9
 C2H2,vinylidene 2.371-12 1.579-12 9.460-14 1.806-17
 CH2CO,ketene    6.5331-7 5.5059-7 2.1326-7 8.4617-9
 O(CH)2O         6.551-13 5.149-13 1.583-13 2.285-15
 C2H3,vinyl      1.038-10 7.370-11 7.735-12 7.181-15
 CH3CO,acetyl    1.624-10 1.247-10 2.882-11 2.140-13
 C2H4            1.1952-5 1.0326-5 4.7078-6 3.3363-7
 C2H4O,ethylen-o 9.829-14 7.499-14 1.866-14 1.538-16
 CH3CHO,ethanal  1.978 -8 1.693 -8 9.275 -9 8.257-10
 CH3COOH         1.113-10 9.839-11 8.603-11 2.348-11
 OHCH2COOH       7.046-16 5.697-16 3.467-16 2.312-17
 C2H5            1.098 -9 8.421-10 1.915-10 1.457-12
 C2H6            1.9908-6 1.7778-6 1.2921-6 2.9582-7
 C2H5OH          3.265-11 2.693-11 1.452-11 9.709-13
 CH3OCH3         7.862-14 6.173-14 2.372-14 5.682-16
 C2O             5.404-14 3.587-14 2.125-15 3.649-19
 C3H3,1-propynl  1.277-15 7.813-16 2.948-17 1.222-21
 C3H3,2-propynl  9.160-11 6.263-11 5.080-12 2.171-15
 C3H4,allene     1.643 -9 1.231 -9 2.110-10 7.746-13
 C3H4,propyne    4.786 -9 3.610 -9 6.485-10 2.732-12
 C3H4,cyclo-     9.464-13 6.509-13 6.202-14 3.845-17
 C3H5,allyl      9.330-11 6.800-11 1.088-11 2.906-14
 C3H6,propylene  1.849 -8 1.485 -8 5.226 -9 1.327-10
 C3H6,cyclo-     2.861-11 2.220-11 6.170-12 7.757-14
 C3H6O,propylox  1.368-16 9.772-17 1.968-17 6.731-20
 C3H6O,acetone   1.862-11 1.513-11 7.332-12 3.531-13
 C3H6O,propanal  5.060-12 3.960-12 1.489-12 3.358-14
 C3H7,n-propyl   3.207-13 2.252-13 3.543-14 6.965-17
 C3H7,i-propyl   3.487-13 2.478-13 4.228-14 1.054-16
 C3H8            6.199-10 5.080-10 2.599-10 1.622-11
 C3H8O,1propanol 9.401-15 7.129-15 2.741-15 5.166-17
 C3H8O,2propanol 1.183-14 9.088-15 3.824-15 9.566-17
 C3O2            5.338-11 4.141-11 9.155-12 6.132-14
 C4H2,butadiyne  2.804-12 1.787-12 7.963-14 6.275-18
 C4H4,1,3-cyclo- 1.473-16 9.086-17 4.105-18 2.654-22
 C4H6,butadiene  5.371-11 3.905-11 6.931-12 2.261-14
 C4H6,1butyne    1.599-12 1.106-12 1.392-13 1.575-16
 C4H6,2butyne    2.199-12 1.558-12 2.311-13 4.265-16
 C4H6,cyclo-     4.853-14 3.393-14 4.610-15 6.640-18
 C4H8,1-butene   5.374-12 3.963-12 9.839-13 6.850-15
 C4H8,cis2-buten 2.772-12 2.067-12 5.526-13 4.784-15
 C4H8,tr2-butene 3.119-12 2.326-12 6.238-13 5.478-15
 C4H8,isobutene  3.882-12 2.911-12 8.109-13 7.989-15
 C4H8,cyclo-     1.407-15 1.010-15 2.082-16 8.358-19
 C4H9,n-butyl    2.809-16 1.832-16 2.206-17 1.523-20
 C4H9,i-butyl    1.863-16 1.226-16 1.565-17 1.297-20
 C4H9,s-butyl    1.908-16 1.246-16 1.511-17 1.057-20
 C4H10,n-butane  1.947-13 1.463-13 5.234-14 8.754-16
 C4H10,isobutane 7.567-14 5.732-14 2.175-14 4.357-16
 C5H6,1,3cyclo-  8.613-13 6.150-13 9.639-14 2.142-16
 C5H8,cyclo-     1.351-14 9.631-15 1.894-15 6.599-18
 C5H10,1-pentene 1.332-15 9.027-16 1.589-16 3.050-19
 C6H5,phenyl     1.304-16 8.014-17 3.977-18 3.026-22
 C6H6            1.422-11 1.072-11 2.435-12 1.654-14
 C6H5OH,phenol   2.117-15 1.511-15 3.026-16 1.015-18
 C7H7,benzyl     1.527-16 9.540-17 6.734-18 1.192-21
 C7H8            3.229-14 2.266-14 4.000-15 9.924-18
 C8H8,styrene    1.554-16 9.832-17 8.530-18 2.474-21
 *H              1.0655-6 8.9860-7 2.4391-7 5.4051-9
 HCO             2.166 -8 1.757 -8 4.646 -9 6.534-11
 HCCO            3.255-12 2.299-12 2.355-13 1.875-16
 *H2             4.6179-1 4.6187-1 4.5411-1 4.3042-1
 HCHO,formaldehy 2.0593-6 1.8483-6 1.1029-6 1.6205-7
 HCOOH           6.7291-8 6.2520-8 6.0722-8 2.9062-8
 H2O             1.2749-2 1.3043-2 1.9108-2 4.2670-2
 *O              1.370-15 9.432-16 7.197-17 2.744-20
 *OH             7.918-10 6.422-10 1.700-10 2.438-12
 C(gr)           1.0157-1 1.0241-1 1.1112-1 1.5977-1

  * THERMODYNAMIC PROPERTIES FITTED TO 20000.K

              THEORETICAL ROCKET PERFORMANCE ASSUMING EQUILIBRIUM

            COMPOSITION DURING EXPANSION FROM FINITE AREA COMBUSTOR

 Pin =   319.1 PSIA
 Ac/At =  2.0000      Pinj/Pinf =  1.054116
 CASE = test___________

             REACTANT                       MOLES         ENERGY      TEMP
                                                         KJ/KG-MOL      K
 FUEL        RP-1                       100.0000000    -24717.700    298.150
 OXIDANT     O2(L)                      100.0000000    -12979.000     90.170

 O/F=    0.89623  %FUEL= 52.736275  R,EQ.RATIO= 3.800000  PHI,EQ.RATIO= 3.800000

                 INJECTOR  COMB END  THROAT     EXIT
 Pinj/P            1.0000   1.1176   1.8642   11.543
 P, BAR            22.000   19.685   11.801   1.9059
 T, K             1418.05  1401.61  1299.81  1063.27
 RHO, KG/CU M    2.9406 0 2.6626 0 1.7443 0 3.6437-1
 H, KJ/KG        -1124.38 -1167.85 -1529.56 -2610.14
 U, KJ/KG        -1872.54 -1907.17 -2206.11 -3133.22
 G, KJ/KG        -18883.0 -18759.5 -17843.5 -15955.3
 S, KJ/(KG)(K)    12.5233  12.5511  12.5511  12.5511

 M, (1/n)          15.759   15.763   15.974   16.901
 MW, MOL WT        13.973   13.962   14.002   13.992
 (dLV/dLP)t      -1.03907 -1.03932 -1.04973 -1.08227
 (dLV/dLT)p        1.3887   1.3983   1.5676   2.2557
 Cp, KJ/(KG)(K)    4.5795   4.6673   5.9536  12.2351
 GAMMAs            1.2242   1.2220   1.1978   1.1394
 SON VEL,M/SEC      957.0    950.5    900.2    772.0
 MACH NUMBER        0.000    0.310    1.000    2.233

 PERFORMANCE PARAMETERS

 Ae/At                      2.0000   1.0000   2.5000
 CSTAR, M/SEC               1329.1   1329.1   1329.1
 CF                         0.2219   0.6773   1.2970
 Ivac, M/SEC                2802.1   1651.8   2027.3
 Isp, M/SEC                  294.9    900.2   1723.8

 MOLE FRACTIONS

 CH2             1.242-12 8.483-13 6.315-14 2.167-17
 CH3             7.7431-7 6.4033-7 1.9450-7 4.4123-9
 CH2OH           2.560-11 1.987-11 4.959-12 4.481-14
 CH3O            9.601-13 7.186-13 1.407-13 6.208-16
 CH4             2.0616-2 2.0211-2 2.1726-2 2.1348-2
 CH3OH           3.5177-8 3.1236-8 2.1647-8 3.9889-9
 *CO             3.8787-1 3.8670-1 3.7342-1 2.9977-1
 *CO2            5.3462-3 5.6156-3 9.7398-3 3.4688-2
 COOH            9.875-11 8.225-11 3.331-11 1.227-12
 C2H             2.996-15 1.807-15 5.194-17 1.089-21
 C2H2,acetylene  1.4784-6 1.1845-6 2.5974-7 2.4465-9
 C2H2,vinylidene 1.582-12 1.058-12 6.816-14 1.483-17
 CH2CO,ketene    6.0212-7 5.0791-7 1.9873-7 8.0066-9
 O(CH)2O         6.187-13 4.867-13 1.501-13 2.161-15
 C2H3,vinyl      7.809-11 5.561-11 6.151-12 6.278-15
 CH3CO,acetyl    1.447-10 1.113-10 2.620-11 2.004-13
 C2H4            1.1531-5 9.9716-6 4.5840-6 3.3024-7
 C2H4O,ethylen-o 9.214-14 7.040-14 1.770-14 1.483-16
 CH3CHO,ethanal  2.075 -8 1.777 -8 9.632 -9 8.398-10
 CH3COOH         1.322-10 1.167-10 9.847-11 2.505-11
 OHCH2COOH       8.413-16 6.797-16 3.976-16 2.442-17
 C2H5            9.985-10 7.675-10 1.782-10 1.410-12
 C2H6            2.2238-6 1.9859-6 1.4214-6 3.1730-7
 C2H5OH          3.702-11 3.054-11 1.612-11 1.036-12
 CH3OCH3         8.496-14 6.674-14 2.534-14 5.923-16
 C2O             3.519-14 2.345-14 1.491-15 2.897-19
 C3H3,1-propynl  8.306-16 5.105-16 2.085-17 9.965-22
 C3H3,2-propynl  6.641-11 4.557-11 3.923-12 1.866-15
 C3H4,allene     1.379 -9 1.036 -9 1.837-10 7.177-13
 C3H4,propyne    4.044 -9 3.058 -9 5.675-10 2.539-12
 C3H4,cyclo-     7.307-13 5.042-13 5.048-14 3.424-17
 C3H5,allyl      8.071-11 5.897-11 9.730-12 2.747-14
 C3H6,propylene  1.863 -8 1.498 -8 5.290 -9 1.355-10
 C3H6,cyclo-     2.786-11 2.166-11 6.080-12 7.799-14
 C3H6O,propylox  1.348-16 9.645-17 1.952-17 6.719-20
 C3H6O,acetone   2.080-11 1.690-11 8.041-12 3.739-13
 C3H6O,propanal  5.451-12 4.268-12 1.586-12 3.496-14
 C3H7,n-propyl   2.999-13 2.111-13 3.385-14 6.901-17
 C3H7,i-propyl   3.299-13 2.350-13 4.077-14 1.050-16
 C3H8            7.137-10 5.850-10 2.942-10 1.785-11
 C3H8O,1propanol 1.101-14 8.350-15 3.135-15 5.655-17
 C3H8O,2propanol 1.403-14 1.078-14 4.420-15 1.054-16
 C3O2            4.440-11 3.450-11 7.801-12 5.400-14
 C4H2,butadiyne  1.793-12 1.148-12 5.547-14 5.055-18
 C4H4,1,3-cyclo- 1.023-16 6.337-17 3.068-18 2.246-22
 C4H6,butadiene  4.908-11 3.576-11 6.490-12 2.206-14
 C4H6,1butyne    1.392-12 9.652-13 1.253-13 1.500-16
 C4H6,2butyne    1.959-12 1.391-12 2.119-13 4.107-16
 C4H6,cyclo-     4.269-14 2.993-14 4.186-15 6.360-18
 C4H8,1-butene   5.582-12 4.122-12 1.025-12 7.174-15
 C4H8,cis2-buten 2.910-12 2.172-12 5.807-13 5.034-15
 C4H8,tr2-butene 3.276-12 2.446-12 6.557-13 5.766-15
 C4H8,isobutene  4.098-12 3.078-12 8.561-13 8.431-15
 C4H8,cyclo-     1.423-15 1.023-15 2.124-16 8.647-19
 C4H9,n-butyl    2.740-16 1.791-16 2.189-17 1.556-20
 C4H9,i-butyl    1.833-16 1.208-16 1.564-17 1.331-20
 C4H9,s-butyl    1.863-16 1.219-16 1.501-17 1.080-20
 C4H10,n-butane  2.308-13 1.735-13 6.092-14 9.870-16
 C4H10,isobutane 9.044-14 6.855-14 2.549-14 4.933-16
 C5H6,1,3cyclo-  7.733-13 5.534-13 8.897-14 2.071-16
 C5H8,cyclo-     1.357-14 9.693-15 1.922-15 6.805-18
 C5H10,1-pentene 1.428-15 9.692-16 1.705-16 3.276-19
 C6H6            1.346-11 1.016-11 2.345-12 1.640-14
 C6H5OH,phenol   2.085-15 1.490-15 2.999-16 1.012-18
 C7H7,benzyl     1.274-16 7.985-17 5.872-18 1.120-21
 C7H8            3.195-14 2.246-14 4.008-15 1.016-17
 C8H8,styrene    1.390-16 8.819-17 7.880-18 2.414-21
 *H              8.4602-7 7.1512-7 2.0202-7 4.8099-9
 HCO             1.817 -8 1.476 -8 4.004 -9 5.879-11
 HCCO            2.385-12 1.690-12 1.821-13 1.582-16
 *H2             4.5858-1 4.5868-1 4.5093-1 4.2787-1
 HCHO,formaldehy 2.0183-6 1.8119-6 1.0799-6 1.5789-7
 HCOOH           7.4841-8 6.9474-8 6.5674-8 2.9733-8
 H2O             1.4200-2 1.4510-2 2.0736-2 4.4182-2
 *O              9.245-16 6.387-16 5.202-17 2.218-20
 *OH             6.640-10 5.395-10 1.466-10 2.195-12
 C(gr)           1.1336-1 1.1426-1 1.2344-1 1.7214-1

  * THERMODYNAMIC PROPERTIES FITTED TO 20000.K

              THEORETICAL ROCKET PERFORMANCE ASSUMING EQUILIBRIUM

            COMPOSITION DURING EXPANSION FROM FINITE AREA COMBUSTOR

 Pin =   319.1 PSIA
 Ac/At =  2.0000      Pinj/Pinf =  1.053936
 CASE = test___________

             REACTANT                       MOLES         ENERGY      TEMP
                                                         KJ/KG-MOL      K
 FUEL        RP-1                       100.0000000    -24717.700    298.150
 OXIDANT     O2(L)                      100.0000000    -12979.000     90.170

 O/F=    0.87325  %FUEL= 53.383221  R,EQ.RATIO= 3.900000  PHI,EQ.RATIO= 3.900000

                 INJECTOR  COMB END  THROAT     EXIT
 Pinj/P            1.0000   1.1172   1.8608   11.496
 P, BAR            22.000   19.692   11.823   1.9137
 T, K             1402.88  1386.95  1289.46  1058.99
 RHO, KG/CU M    2.9843 0 2.7025 0 1.7691 0 3.6883-1
 H, KJ/KG        -1133.20 -1175.90 -1531.77 -2600.40
 U, KJ/KG        -1870.39 -1904.55 -2200.07 -3119.24
 G, KJ/KG        -18639.1 -18521.2 -17657.9 -15844.2
 S, KJ/(KG)(K)    12.4785  12.5061  12.5061  12.5061

 M, (1/n)          15.822   15.826   16.042   16.970
 MW, MOL WT        13.850   13.838   13.873   13.850
 (dLV/dLP)t      -1.04272 -1.04297 -1.05333 -1.08441
 (dLV/dLT)p        1.4309   1.4411   1.6140   2.2880
 Cp, KJ/(KG)(K)    4.8556   4.9509   6.2808  12.4735
 GAMMAs            1.2178   1.2157   1.1928   1.1379
 SON VEL,M/SEC      947.5    941.2    892.8    768.4
 MACH NUMBER        0.000    0.310    1.000    2.229

 PERFORMANCE PARAMETERS

 Ae/At                      2.0000   1.0000   2.5000
 CSTAR, M/SEC               1321.5   1321.5   1321.5
 CF                         0.2211   0.6756   1.2962
 Ivac, M/SEC                2785.6   1641.4   2015.9
 Isp, M/SEC                  292.2    892.8   1713.0

 MOLE FRACTIONS

 CH2             8.676-13 5.947-13 4.714-14 1.806-17
 CH3             6.8068-7 5.6381-7 1.7524-7 4.1435-9
 CH2OH           2.314-11 1.798-11 4.555-12 4.212-14
 CH3O            8.391-13 6.292-13 1.259-13 5.744-16
 CH4             2.2367-2 2.1921-2 2.3264-2 2.2385-2
 CH3OH           3.7968-8 3.3704-8 2.3000-8 4.1161-9
 *CO             3.7601-1 3.7476-1 3.6094-1 2.8758-1
 *CO2            5.9271-3 6.2154-3 1.0465-2 3.5144-2
 COOH            9.327-11 7.772-11 3.149-11 1.153-12
 C2H             1.769-15 1.072-15 3.378-17 8.305-22
 C2H2,acetylene  1.1965-6 9.6076-7 2.1847-7 2.1944-9
 C2H2,vinylidene 1.084-12 7.274-13 5.007-14 1.223-17
 CH2CO,ketene    5.5692-7 4.7017-7 1.8563-7 7.5769-9
 O(CH)2O         5.849-13 4.604-13 1.423-13 2.043-15
 C2H3,vinyl      5.981-11 4.273-11 4.956-12 5.502-15
 CH3CO,acetyl    1.297-10 9.994-11 2.391-11 1.877-13
 C2H4            1.1144-5 9.6450-6 4.4679-6 3.2670-7
 C2H4O,ethylen-o 8.658-14 6.624-14 1.682-14 1.429-16
 CH3CHO,ethanal  2.166 -8 1.855 -8 9.960 -9 8.523-10
 CH3COOH         1.547-10 1.364-10 1.114-10 2.661-11
 OHCH2COOH       9.887-16 7.981-16 4.502-16 2.569-17
 C2H5            9.132-10 7.032-10 1.664-10 1.363-12
 C2H6            2.4640-6 2.2003-6 1.5537-6 3.3936-7
 C2H5OH          4.155-11 3.427-11 1.775-11 1.101-12
 CH3OCH3         9.116-14 7.164-14 2.690-14 6.155-16
 C2O             2.353-14 1.574-14 1.067-15 2.309-19
 C3H3,1-propynl  5.554-16 3.429-16 1.504-17 8.158-22
 C3H3,2-propynl  4.916-11 3.385-11 3.074-12 1.608-15
 C3H4,allene     1.170 -9 8.810-10 1.612-10 6.655-13
 C3H4,propyne    3.453 -9 2.617 -9 5.004-10 2.361-12
 C3H4,cyclo-     5.735-13 3.970-13 4.158-14 3.053-17
 C3H5,allyl      7.045-11 5.159-11 8.752-12 2.597-14
 C3H6,propylene  1.874 -8 1.509 -8 5.348 -9 1.381-10
 C3H6,cyclo-     2.717-11 2.115-11 5.994-12 7.830-14
 C3H6O,propylox  1.327-16 9.510-17 1.933-17 6.692-20
 C3H6O,acetone   2.302-11 1.870-11 8.752-12 3.945-13
 C3H6O,propanal  5.831-12 4.568-12 1.680-12 3.629-14
 C3H7,n-propyl   2.815-13 1.985-13 3.241-14 6.827-17
 C3H7,i-propyl   3.131-13 2.234-13 3.937-14 1.044-16
 C3H8            8.133-10 6.669-10 3.303-10 1.955-11
 C3H8O,1propanol 1.273-14 9.658-15 3.550-15 6.160-17
 C3H8O,2propanol 1.642-14 1.261-14 5.054-15 1.155-16
 C3O2            3.728-11 2.901-11 6.692-12 4.762-14
 C4H2,butadiyne  1.181-12 7.595-13 3.947-14 4.090-18
 C4H6,butadiene  4.508-11 3.292-11 6.096-12 2.150-14
 C4H6,1butyne    1.221-12 8.493-13 1.134-13 1.428-16
 C4H6,2butyne    1.758-12 1.251-12 1.952-13 3.952-16
 C4H6,cyclo-     3.784-14 2.660-14 3.820-15 6.089-18
 C4H8,1-butene   5.778-12 4.273-12 1.065-12 7.490-15
 C4H8,cis2-buten 3.042-12 2.274-12 6.078-13 5.280-15
 C4H8,tr2-butene 3.426-12 2.562-12 6.867-13 6.051-15
 C4H8,isobutene  4.308-12 3.239-12 9.001-13 8.870-15
 C4H8,cyclo-     1.437-15 1.035-15 2.162-16 8.921-19
 C4H9,n-butyl    2.674-16 1.753-16 2.172-17 1.586-20
 C4H9,i-butyl    1.803-16 1.191-16 1.562-17 1.361-20
 C4H9,s-butyl    1.820-16 1.194-16 1.490-17 1.100-20
 C4H10,n-butane  2.703-13 2.033-13 7.019-14 1.107-15
 C4H10,isobutane 1.067-13 8.094-14 2.955-14 5.555-16
 C5H6,1,3cyclo-  6.987-13 5.012-13 8.246-14 2.002-16
 C5H8,cyclo-     1.362-14 9.744-15 1.947-15 6.999-18
 C5H10,1-pentene 1.522-15 1.035-15 1.820-16 3.503-19
 C6H6            1.278-11 9.666-12 2.262-12 1.624-14
 C6H5OH,phenol   2.051-15 1.468-15 2.969-16 1.008-18
 C7H7,benzyl     1.075-16 6.759-17 5.158-18 1.051-21
 C7H8            3.161-14 2.227-14 4.013-15 1.037-17
 C8H8,styrene    1.251-16 7.962-17 7.309-18 2.351-21
 *H              6.8181-7 5.7756-7 1.6918-7 4.2916-9
 HCO             1.539 -8 1.252 -8 3.476 -9 5.298-11
 HCCO            1.780-12 1.265-12 1.427-13 1.339-16
 *H2             4.5534-1 4.5547-1 4.4776-1 4.2534-1
 HCHO,formaldehy 1.9771-6 1.7753-6 1.0567-6 1.5375-7
 HCOOH           8.2408-8 7.6429-8 7.0479-8 3.0346-8
 H2O             1.5673-2 1.5997-2 2.2350-2 4.5667-2
 *O              6.391-16 4.432-16 3.827-17 1.800-20
 *OH             5.623-10 4.576-10 1.273-10 1.979-12
 C(gr)           1.2467-1 1.2563-1 1.3522-1 1.8389-1

  * THERMODYNAMIC PROPERTIES FITTED TO 20000.K

              THEORETICAL ROCKET PERFORMANCE ASSUMING EQUILIBRIUM

            COMPOSITION DURING EXPANSION FROM FINITE AREA COMBUSTOR

 Pin =   319.1 PSIA
 Ac/At =  2.0000      Pinj/Pinf =  1.053772
 CASE = test___________

             REACTANT                       MOLES         ENERGY      TEMP
                                                         KJ/KG-MOL      K
 FUEL        RP-1                       100.0000000    -24717.700    298.150
 OXIDANT     O2(L)                      100.0000000    -12979.000     90.170

 O/F=    0.85142  %FUEL= 54.012696  R,EQ.RATIO= 4.000000  PHI,EQ.RATIO= 4.000000

                 INJECTOR  COMB END  THROAT     EXIT
 Pinj/P            1.0000   1.1168   1.8577   11.454
 P, BAR            22.000   19.699   11.843   1.9207
 T, K             1388.98  1373.51  1279.85  1054.82
 RHO, KG/CU M    3.0266 0 2.7411 0 1.7931 0 3.7317-1
 H, KJ/KG        -1141.77 -1183.75 -1534.18 -2591.37
 U, KJ/KG        -1868.67 -1902.40 -2194.65 -3106.08
 G, KJ/KG        -18412.9 -18300.2 -17483.5 -15736.4
 S, KJ/(KG)(K)    12.4344  12.4618  12.4618  12.4618

 M, (1/n)          15.888   15.891   16.112   17.040
 MW, MOL WT        13.734   13.722   13.752   13.716
 (dLV/dLP)t      -1.04635 -1.04660 -1.05686 -1.08643
 (dLV/dLT)p        1.4734   1.4842   1.6596   2.3184
 Cp, KJ/(KG)(K)    5.1343   5.2367   6.6017  12.6934
 GAMMAs            1.2120   1.2099   1.1883   1.1366
 SON VEL,M/SEC      938.6    932.5    885.9    764.9
 MACH NUMBER        0.000    0.311    1.000    2.226

 PERFORMANCE PARAMETERS

 Ae/At                      2.0000   1.0000   2.5000
 CSTAR, M/SEC               1314.3   1314.3   1314.3
 CF                         0.2205   0.6741   1.2955
 Ivac, M/SEC                2769.9   1631.4   2005.0
 Isp, M/SEC                  289.8    885.9   1702.7

 MOLE FRACTIONS

 CH2             6.198-13 4.264-13 3.576-14 1.510-17
 CH3             6.0298-7 5.0022-7 1.5876-7 3.8945-9
 CH2OH           2.101-11 1.635-11 4.196-12 3.958-14
 CH3O            7.385-13 5.547-13 1.131-13 5.317-16
 CH4             2.4124-2 2.3636-2 2.4799-2 2.3432-2
 CH3OH           4.0703-8 3.6122-8 2.4308-8 4.2378-9
 *CO             3.6459-1 3.6328-1 3.4899-1 2.7600-1
 *CO2            6.5084-3 6.8140-3 1.1165-2 3.5553-2
 COOH            8.816-11 7.348-11 2.978-11 1.083-12
 C2H             1.080-15 6.579-16 2.250-17 6.371-22
 C2H2,acetylene  9.8101-7 7.8945-7 1.8551-7 1.9725-9
 C2H2,vinylidene 7.601-13 5.122-13 3.741-14 1.013-17
 CH2CO,ketene    5.1678-7 4.3662-7 1.7378-7 7.1713-9
 O(CH)2O         5.532-13 4.358-13 1.349-13 1.929-15
 C2H3,vinyl      4.657-11 3.337-11 4.041-12 4.834-15
 CH3CO,acetyl    1.169-10 9.018-11 2.190-11 1.758-13
 C2H4            1.0786-5 9.3432-6 4.3588-6 3.2304-7
 C2H4O,ethylen-o 8.154-14 6.245-14 1.600-14 1.376-16
 CH3CHO,ethanal  2.250 -8 1.927 -8 1.026 -8 8.634-10
 CH3COOH         1.787-10 1.574-10 1.248-10 2.816-11
 OHCH2COOH       1.145-15 9.235-16 5.041-16 2.690-17
 C2H5            8.395-10 6.475-10 1.559-10 1.318-12
 C2H6            2.7101-6 2.4201-6 1.6885-6 3.6197-7
 C2H5OH          4.620-11 3.810-11 1.939-11 1.166-12
 CH3OCH3         9.719-14 7.640-14 2.840-14 6.377-16
 C2O             1.612-14 1.082-14 7.773-16 1.849-19
 C3H3,1-propynl  3.809-16 2.362-16 1.106-17 6.704-22
 C3H3,2-propynl  3.707-11 2.561-11 2.442-12 1.389-15
 C3H4,allene     1.003 -9 7.568-10 1.424-10 6.176-13
 C3H4,propyne    2.977 -9 2.261 -9 4.442-10 2.197-12
 C3H4,cyclo-     4.569-13 3.173-13 3.461-14 2.728-17
 C3H5,allyl      6.199-11 4.550-11 7.916-12 2.456-14
 C3H6,propylene  1.883 -8 1.518 -8 5.399 -9 1.406-10
 C3H6,cyclo-     2.651-11 2.067-11 5.909-12 7.849-14
 C3H6O,propylox  1.306-16 9.367-17 1.912-17 6.652-20
 C3H6O,acetone   2.526-11 2.052-11 9.462-12 4.149-13
 C3H6O,propanal  6.200-12 4.859-12 1.771-12 3.755-14
 C3H7,n-propyl   2.651-13 1.874-13 3.109-14 6.745-17
 C3H7,i-propyl   2.978-13 2.129-13 3.807-14 1.036-16
 C3H8            9.184-10 7.532-10 3.681-10 2.133-11
 C3H8O,1propanol 1.456-14 1.104-14 3.984-15 6.679-17
 C3H8O,2propanol 1.898-14 1.459-14 5.724-15 1.261-16
 C3O2            3.156-11 2.459-11 5.774-12 4.205-14
 C4H2,butadiyne  7.980-13 5.156-13 2.863-14 3.323-18
 C4H6,butadiene  4.161-11 3.044-11 5.744-12 2.094-14
 C4H6,1butyne    1.080-12 7.531-13 1.032-13 1.360-16
 C4H6,2butyne    1.587-12 1.132-12 1.805-13 3.801-16
 C4H6,cyclo-     3.379-14 2.381-14 3.503-15 5.827-18
 C4H8,1-butene   5.964-12 4.416-12 1.102-12 7.799-15
 C4H8,cis2-buten 3.169-12 2.372-12 6.341-13 5.523-15
 C4H8,tr2-butene 3.570-12 2.672-12 7.166-13 6.331-15
 C4H8,isobutene  4.511-12 3.395-12 9.430-13 9.304-15
 C4H8,cyclo-     1.449-15 1.045-15 2.198-16 9.180-19
 C4H9,n-butyl    2.613-16 1.716-16 2.154-17 1.611-20
 C4H9,i-butyl    1.774-16 1.175-16 1.559-17 1.389-20
 C4H9,s-butyl    1.780-16 1.170-16 1.479-17 1.118-20
 C4H10,n-butane  3.130-13 2.356-13 8.015-14 1.236-15
 C4H10,isobutane 1.245-13 9.449-14 3.395-14 6.224-16
 C5H6,1,3cyclo-  6.350-13 4.565-13 7.671-14 1.934-16
 C5H8,cyclo-     1.366-14 9.785-15 1.970-15 7.181-18
 C5H10,1-pentene 1.614-15 1.099-15 1.933-16 3.732-19
 C6H6            1.216-11 9.215-12 2.185-12 1.607-14
 C6H5OH,phenol   2.016-15 1.445-15 2.934-16 1.001-18
 C7H8            3.127-14 2.206-14 4.014-15 1.056-17
 C8H8,styrene    1.133-16 7.230-17 6.804-18 2.287-21
 *H              5.5694-7 4.7275-7 1.4307-7 3.8390-9
 HCO             1.315 -8 1.071 -8 3.037 -9 4.782-11
 HCCO            1.352-12 9.636-13 1.133-13 1.136-16
 *H2             4.5207-1 4.5223-1 4.4461-1 4.2282-1
 HCHO,formaldehy 1.9358-6 1.7385-6 1.0336-6 1.4966-7
 HCOOH           8.9917-8 8.3318-8 7.5113-8 3.0902-8
 H2O             1.7158-2 1.7495-2 2.3947-2 4.7122-2
 *O              4.518-16 3.143-16 2.861-17 1.467-20
 *OH             4.805-10 3.916-10 1.113-10 1.788-12
 C(gr)           1.3553-1 1.3653-1 1.4649-1 1.9507-1

  * THERMODYNAMIC PROPERTIES FITTED TO 20000.K