

         NASA-GLENN CHEMICAL EQUILIBRIUM PROGRAM CEA2, FEBRUARY 5, 2004
                   BY  BONNIE MCBRIDE AND SANFORD GORDON
      REFS: NASA RP-1311, PART I, 1994 AND NASA RP-1311, PART II, 1996

 *******************************************************************************

  
 ### CEA analysis performed on Wed 20-Apr-2022 15:48:15
  
 # Problem Type: "Rocket" (Finite Area Combustor)
  
 prob case=test___________2464 ro equilibrium    fac
  
 !Contraction Ratio:
 ac/at=2
  
 # Pressure (1 value):
 p,bar= 22
 # Supersonic Area Ratio (1 value):
 supar= 2
  
 # Equivalence based on Fuel/Oxid. wt ratio (Eq 9.19*) (11 values):
 phi= 3, 3.1, 3.2, 3.3, 3.4, 3.5, 3.6, 3.7, 3.8, 3.9, 4
  
 # You selected the following fuels and oxidizers:
 reac
 fuel RP-1             mole=100.0000
 oxid O2(L)            mole=100.0000
  
 # You selected these options for output:
 # short version of output
 output short
 # Proportions of any products will be expressed as Mole Fractions.
 # Heat will be expressed as siunits
 output siunits
 # Trace variable:
 output trace=1e-16
  
 # Input prepared by this script:/var/www/sites/cearun.grc.nasa.gov/cgi-bin/CEARU
 N/prepareInputFile.cgi
  
 ### IMPORTANT:  The following line is the end of your CEA input file!
 end

              THEORETICAL ROCKET PERFORMANCE ASSUMING EQUILIBRIUM

            COMPOSITION DURING EXPANSION FROM FINITE AREA COMBUSTOR

 Pin =   319.1 PSIA
 Ac/At =  2.0000      Pinj/Pinf =  1.056231
 CASE = test___________

             REACTANT                       MOLES         ENERGY      TEMP
                                                         KJ/KG-MOL      K
 FUEL        RP-1                       100.0000000    -24717.700    298.150
 OXIDANT     O2(L)                      100.0000000    -12979.000     90.170

 O/F=    1.13522  %FUEL= 46.833536  R,EQ.RATIO= 3.000000  PHI,EQ.RATIO= 3.000000

                 INJECTOR  COMB END  THROAT     EXIT
 Pinj/P            1.0000   1.1224   1.9090   8.7661
 P, BAR            22.000   19.600   11.524   2.5097
 T, K             1610.28  1587.59  1425.90  1141.70
 RHO, KG/CU M    2.5283 0 2.2848 0 1.5076 0 4.2786-1
 H, KJ/KG        -1043.93 -1096.44 -1526.42 -2541.55
 U, KJ/KG        -1914.08 -1954.28 -2290.82 -3128.11
 G, KJ/KG        -21813.5 -21620.3 -19960.0 -17301.1
 S, KJ/(KG)(K)    12.8981  12.9277  12.9277  12.9277

 M, (1/n)          15.387   15.388   15.510   16.184
 MW, MOL WT        15.356   15.351   15.410   15.519
 (dLV/dLP)t      -1.01327 -1.01334 -1.02056 -1.05432
 (dLV/dLT)p        1.1112   1.1143   1.2095   1.7856
 Cp, KJ/(KG)(K)    2.7997   2.8210   3.4331   8.2645
 GAMMAs            1.2904   1.2894   1.2624   1.1681
 SON VEL,M/SEC     1059.6   1051.7    982.3    827.7
 MACH NUMBER        0.000    0.308    1.000    2.091

 PERFORMANCE PARAMETERS

 Ae/At                      2.0000   1.0000   2.0000
 CSTAR, M/SEC               1406.4   1406.4   1406.4
 CF                         0.2304   0.6985   1.2306
 Ivac, M/SEC                2971.0   1760.5   2069.6
 Isp, M/SEC                  324.1    982.3   1730.7

 MOLE FRACTIONS

 *CH             4.310-15 2.422-15 1.901-17 1.459-22
 CH2             6.308-11 4.192-11 1.540-12 4.582-16
 CH3             3.0916-6 2.5269-6 5.9526-7 1.4921-8
 CH2OH           7.137-11 5.472-11 1.150-11 1.694-13
 CH3O            3.904-12 2.875-12 4.386-13 3.064-15
 CH4             8.0876-3 7.9356-3 9.9264-3 1.3524-2
 CH3OH           1.3808-8 1.2241-8 1.0063-8 3.7599-9
 *CO             5.0289-1 5.0243-1 4.9625-1 4.4242-1
 *CO2            1.5014-3 1.5912-3 3.7856-3 2.2992-2
 COOH            1.622-10 1.342-10 5.289-11 3.555-12
 C2H             9.772-13 5.675-13 5.804-15 8.494-20
 C2H2,acetylene  1.4768-5 1.1650-5 1.7005-6 1.4805-8
 C2H2,vinylidene 9.923-11 6.453-11 1.981-12 3.732-16
 CH2CO,ketene    1.3056-6 1.0928-6 3.8342-7 2.2118-8
 O(CH)2O         1.006-12 7.838-13 2.309-13 6.931-15
 C2H3,vinyl      1.424 -9 9.920-10 6.439-11 6.852-14
 CH3CO,acetyl    4.440-10 3.368-10 6.527-11 8.052-13
 C2H4            1.6153-5 1.3866-5 5.8890-6 5.6176-7
 C2H4O,ethylen-o 1.676-13 1.264-13 2.828-14 4.480-16
 CH3CHO,ethanal  1.1810-8 1.0067-8 6.0387-9 1.0492-9
 CH3COOH         2.037-11 1.798-11 2.150-11 1.641-11
 OHCH2COOH       1.179-16 9.489-17 8.093-17 2.154-17
 C2H5            2.560 -9 1.939 -9 3.655-10 4.296-12
 C2H6            6.8598-7 6.1084-7 5.1480-7 2.1313-7
 C2H5OH          9.416-12 7.727-12 5.046-12 8.782-13
 CH3OCH3         3.548-14 2.764-14 1.185-14 7.360-16
 C2O             2.754-12 1.785-12 5.438-14 9.900-18
 C3H3,1-propynl  6.771-14 4.028-14 7.340-16 3.459-20
 C3H3,2-propynl  1.769 -9 1.184 -9 5.573-11 2.714-14
 C3H4,allene     8.114 -9 5.987 -9 7.525-10 3.667-12
 C3H4,propyne    2.219 -8 1.650 -8 2.200 -9 1.233-11
 C3H4,cyclo-     1.018-11 6.858-12 4.148-13 3.387-16
 C3H5,allyl      3.482-10 2.496-10 3.026-11 1.232-13
 C3H6,propylene  1.664 -8 1.325 -8 4.528 -9 2.061-10
 C3H6,cyclo-     3.537-11 2.712-11 6.884-12 1.538-13
 C3H6O,propylox  1.460-16 1.028-16 1.964-17 1.718-19
 C3H6O,acetone   6.169-12 4.982-12 2.855-12 3.586-13
 C3H6O,propanal  2.354-12 1.827-12 7.612-13 4.437-14
 C3H7,n-propyl   5.761-13 3.979-13 5.267-14 2.123-16
 C3H7,i-propyl   5.611-13 3.926-13 5.761-14 2.961-16
 C3H8            1.609-10 1.309-10 7.915-11 1.185-11
 C3H8O,1propanol 2.003-15 1.506-15 7.180-16 4.689-17
 C3H8O,2propanol 2.243-15 1.709-15 9.095-16 7.853-17
 C3O2            2.678-10 2.055-10 3.622-11 3.780-13
 C4H2,butadiyne  1.745-10 1.083-10 2.291-12 1.763-16
 C4H4,1,3-cyclo- 4.254-15 2.554-15 6.106-17 5.149-21
 C4H6,butadiene  1.205-10 8.618-11 1.250-11 7.167-14
 C4H6,1butyne    5.618-12 3.815-12 3.627-13 7.248-16
 C4H6,2butyne    6.202-12 4.321-12 5.050-13 1.656-15
 C4H6,cyclo-     1.548-13 1.063-13 1.107-14 2.805-17
 C4H8,1-butene   3.630-12 2.643-12 6.500-13 1.077-14
 C4H8,cis2-buten 1.693-12 1.248-12 3.372-13 6.980-15
 C4H8,tr2-butene 1.902-12 1.401-12 3.795-13 7.945-15
 C4H8,isobutene  2.250-12 1.668-12 4.736-13 1.113-14
 C4H8,cyclo-     1.221-15 8.633-16 1.678-16 1.590-18
 C4H9,n-butyl    3.404-16 2.177-16 2.292-17 4.307-20
 C4H9,i-butyl    2.090-16 1.348-16 1.527-17 3.440-20
 C4H9,s-butyl    2.283-16 1.462-16 1.558-17 2.980-20
 C4H10,n-butane  3.841-14 2.855-14 1.227-14 6.523-16
 C4H10,isobutane 1.382-14 1.037-14 4.788-15 3.047-16
 C5H6,1,3cyclo-  2.273-12 1.595-12 1.986-13 7.774-16
 C5H8,cyclo-     1.249-14 8.764-15 1.606-15 1.319-17
 C5H10,1-pentene 6.678-16 4.453-16 7.961-17 4.853-19
 C6H2            2.203-15 1.077-15 3.341-18 2.348-24
 C6H5,phenyl     2.287-15 1.368-15 3.876-17 4.454-21
 C6H6            2.289-11 1.702-11 3.371-12 4.068-14
 C6H5OH,phenol   2.271-15 1.598-15 3.038-16 2.607-18
 C7H7,benzyl     7.984-16 4.866-16 2.362-17 8.397-21
 C7H8            3.428-14 2.367-14 3.807-15 2.237-17
 C8H8,styrene    4.231-16 2.617-16 1.737-17 1.179-20
 *H              8.9604-6 7.4627-6 1.3990-6 2.6209-8
 HCO             1.044 -7 8.387 -8 1.736 -8 3.057-10
 HCCO            5.512-11 3.822-11 2.429-12 2.391-15
 *H2             4.8108-1 4.8112-1 4.7535-1 4.5268-1
 HCHO,formaldehy 2.3236-6 2.0790-6 1.2482-6 2.6817-7
 HCOOH           2.2689-8 2.1087-8 2.5843-8 2.5889-8
 H2O             4.3774-3 4.5002-3 8.2642-3 2.7291-2
 H2O2            1.132-16 8.155-17 1.278-17 8.157-20
 *O              5.052-14 3.399-14 1.405-15 5.609-19
 *OH             3.833 -9 3.075 -9 6.343-10 1.130-11
 *O2             2.096-16 1.456-16 1.157-17 1.750-20
 C(gr)           2.0113-3 2.3865-3 6.4095-3 4.1091-2

  * THERMODYNAMIC PROPERTIES FITTED TO 20000.K

              THEORETICAL ROCKET PERFORMANCE ASSUMING EQUILIBRIUM

            COMPOSITION DURING EXPANSION FROM FINITE AREA COMBUSTOR

 Pin =   319.1 PSIA
 Ac/At =  2.0000      Pinj/Pinf =  1.055909
 CASE = test___________

             REACTANT                       MOLES         ENERGY      TEMP
                                                         KJ/KG-MOL      K
 FUEL        RP-1                       100.0000000    -24717.700    298.150
 OXIDANT     O2(L)                      100.0000000    -12979.000     90.170

 O/F=    1.09860  %FUEL= 47.650769  R,EQ.RATIO= 3.100000  PHI,EQ.RATIO= 3.100000

                 INJECTOR  COMB END  THROAT     EXIT
 Pinj/P            1.0000   1.1217   1.9014   8.6862
 P, BAR            22.000   19.613   11.571   2.5328
 T, K             1577.15  1555.46  1404.17  1135.16
 RHO, KG/CU M    2.5863 0 2.3381 0 1.5416 0 4.3602-1
 H, KJ/KG        -1055.06 -1106.11 -1524.74 -2522.83
 U, KJ/KG        -1905.70 -1944.97 -2275.31 -3103.72
 G, KJ/KG        -21321.7 -21139.7 -19609.8 -17143.2
 S, KJ/(KG)(K)    12.8502  12.8795  12.8795  12.8795

 M, (1/n)          15.416   15.417   15.555   16.248
 MW, MOL WT        15.131   15.125   15.186   15.282
 (dLV/dLP)t      -1.01581 -1.01591 -1.02391 -1.05762
 (dLV/dLT)p        1.1363   1.1401   1.2485   1.8356
 Cp, KJ/(KG)(K)    2.9573   2.9858   3.7053   8.6725
 GAMMAs            1.2815   1.2802   1.2515   1.1644
 SON VEL,M/SEC     1044.1   1036.3    969.2    822.4
 MACH NUMBER        0.000    0.308    1.000    2.083

 PERFORMANCE PARAMETERS

 Ae/At                      2.0000   1.0000   2.0000
 CSTAR, M/SEC               1394.5   1394.5   1394.5
 CF                         0.2291   0.6950   1.2286
 Ivac, M/SEC                2944.9   1743.6   2052.4
 Isp, M/SEC                  319.5    969.2   1713.3

 MOLE FRACTIONS

 *CH             1.679-15 9.456-16 8.630-18 9.988-23
 CH2             3.444-11 2.292-11 9.281-13 3.605-16
 CH3             2.5044-6 2.0485-6 4.9955-7 1.3799-8
 CH2OH           6.134-11 4.710-11 1.014-11 1.591-13
 CH3O            3.162-12 2.332-12 3.690-13 2.818-15
 CH4             9.3829-3 9.2106-3 1.1280-2 1.4520-2
 CH3OH           1.6085-8 1.4274-8 1.1473-8 4.0092-9
 *CO             4.8609-1 4.8554-1 4.7830-1 4.2309-1
 *CO2            1.8449-3 1.9554-3 4.4636-3 2.3975-2
 COOH            1.516-10 1.256-10 4.983-11 3.365-12
 C2H             3.997-13 2.325-13 2.743-15 5.925-20
 C2H2,acetylene  1.0372-5 8.1885-6 1.2638-6 1.2844-8
 C2H2,vinylidene 5.246-11 3.416-11 1.161-12 2.897-16
 CH2CO,ketene    1.1662-6 9.7692-7 3.4829-7 2.0898-8
 O(CH)2O         9.426-13 7.354-13 2.186-13 6.629-15
 C2H3,vinyl      9.119-10 6.360-10 4.442-11 5.783-14
 CH3CO,acetyl    3.758-10 2.855-10 5.692-11 7.526-13
 C2H4            1.5396-5 1.3226-5 5.6765-6 5.5840-7
 C2H4O,ethylen-o 1.539-13 1.162-13 2.648-14 4.361-16
 CH3CHO,ethanal  1.2987-8 1.1083-8 6.5638-9 1.0944-9
 CH3COOH         2.749-11 2.431-11 2.780-11 1.844-11
 OHCH2COOH       1.619-16 1.307-16 1.064-16 2.422-17
 C2H5            2.223 -9 1.686 -9 3.271-10 4.156-12
 C2H6            8.2710-7 7.3729-7 6.0738-7 2.3637-7
 C2H5OH          1.174-11 9.650-12 6.128-12 9.797-13
 CH3OCH3         4.096-14 3.196-14 1.350-14 7.969-16
 C2O             1.410-12 9.154-13 3.090-14 7.407-18
 C3H3,1-propynl  3.439-14 2.050-14 4.173-16 2.668-20
 C3H3,2-propynl  1.068 -9 7.158-10 3.661-11 2.240-14
 C3H4,allene     6.191 -9 4.575 -9 6.029-10 3.345-12
 C3H4,propyne    1.712 -8 1.274 -8 1.778 -9 1.129-11
 C3H4,cyclo-     6.796-12 4.586-12 2.974-13 2.934-16
 C3H5,allyl      2.788-10 2.002-10 2.533-11 1.157-13
 C3H6,propylene  1.702 -8 1.357 -8 4.658 -9 2.145-10
 C3H6,cyclo-     3.424-11 2.630-11 6.771-12 1.568-13
 C3H6O,propylox  1.453-16 1.026-16 1.979-17 1.758-19
 C3H6O,acetone   7.510-12 6.076-12 3.399-12 3.962-13
 C3H6O,propanal  2.704-12 2.102-12 8.635-13 4.796-14
 C3H7,n-propyl   5.234-13 3.623-13 4.926-14 2.129-16
 C3H7,i-propyl   5.196-13 3.643-13 5.472-14 2.990-16
 C3H8            2.037-10 1.661-10 9.793-11 1.365-11
 C3H8O,1propanol 2.632-15 1.984-15 9.168-16 5.437-17
 C3H8O,2propanol 3.006-15 2.297-15 1.181-15 9.181-17
 C3O2            2.047-10 1.572-10 2.875-11 3.278-13
 C4H2,butadiyne  8.613-11 5.355-11 1.269-12 1.334-16
 C4H4,1,3-cyclo- 2.398-15 1.442-15 3.802-17 4.177-21
 C4H6,butadiene  1.053-10 7.545-11 1.129-11 7.027-14
 C4H6,1butyne    4.548-12 3.094-12 3.072-13 6.890-16
 C4H6,2butyne    5.214-12 3.640-12 4.412-13 1.597-15
 C4H6,cyclo-     1.274-13 8.763-14 9.509-15 2.685-17
 C4H8,1-butene   3.902-12 2.847-12 7.015-13 1.164-14
 C4H8,cis2-buten 1.852-12 1.367-12 3.691-13 7.590-15
 C4H8,tr2-butene 2.081-12 1.536-12 4.156-13 8.644-15
 C4H8,isobutene  2.483-12 1.844-12 5.223-13 1.215-14
 C4H8,cyclo-     1.257-15 8.906-16 1.748-16 1.692-18
 C4H9,n-butyl    3.311-16 2.124-16 2.284-17 4.520-20
 C4H9,i-butyl    2.060-16 1.333-16 1.538-17 3.629-20
 C4H9,s-butyl    2.226-16 1.430-16 1.554-17 3.128-20
 C4H10,n-butane  5.102-14 3.802-14 1.590-14 7.798-16
 C4H10,isobutane 1.860-14 1.399-14 6.274-15 3.662-16
 C5H6,1,3cyclo-  1.932-12 1.359-12 1.753-13 7.537-16
 C5H8,cyclo-     1.272-14 8.945-15 1.658-15 1.397-17
 C5H10,1-pentene 7.562-16 5.057-16 9.025-17 5.447-19
 C6H2            7.660-16 3.755-16 1.383-18 1.551-24
 C6H5,phenyl     1.404-15 8.424-16 2.600-17 3.770-21
 C6H6            2.118-11 1.578-11 3.192-12 4.074-14
 C6H5OH,phenol   2.259-15 1.594-15 3.059-16 2.667-18
 C7H7,benzyl     6.036-16 3.689-16 1.898-17 7.856-21
 C7H8            3.409-14 2.360-14 3.852-15 2.346-17
 C8H8,styrene    3.580-16 2.221-16 1.537-17 1.162-20
 *H              6.2260-6 5.1890-6 1.0296-6 2.2500-8
 HCO             8.017 -8 6.444 -8 1.386 -8 2.699-10
 HCCO            3.411-11 2.368-11 1.621-12 1.942-15
 *H2             4.7886-1 4.7889-1 4.7259-1 4.4998-1
 HCHO,formaldehy 2.2891-6 2.0494-6 1.2304-6 2.6319-7
 HCOOH           2.7554-8 2.5637-8 3.0405-8 2.7416-8
 H2O             5.2892-3 5.4382-3 9.6538-3 2.8986-2
 *O              2.732-14 1.841-14 8.370-16 4.296-19
 *OH             2.939 -9 2.360 -9 5.064-10 9.985-12
 *O2             1.384-16 9.631-17 8.142-18 1.436-20
 C(gr)           1.8495-2 1.8930-2 2.3699-2 5.9448-2

  * THERMODYNAMIC PROPERTIES FITTED TO 20000.K

              THEORETICAL ROCKET PERFORMANCE ASSUMING EQUILIBRIUM

            COMPOSITION DURING EXPANSION FROM FINITE AREA COMBUSTOR

 Pin =   319.1 PSIA
 Ac/At =  2.0000      Pinj/Pinf =  1.055598
 CASE = test___________

             REACTANT                       MOLES         ENERGY      TEMP
                                                         KJ/KG-MOL      K
 FUEL        RP-1                       100.0000000    -24717.700    298.150
 OXIDANT     O2(L)                      100.0000000    -12979.000     90.170

 O/F=    1.06427  %FUEL= 48.443259  R,EQ.RATIO= 3.200000  PHI,EQ.RATIO= 3.200000

                 INJECTOR  COMB END  THROAT     EXIT
 Pinj/P            1.0000   1.1210   1.8943   8.6156
 P, BAR            22.000   19.625   11.614   2.5535
 T, K             1547.10  1526.35  1384.61  1128.89
 RHO, KG/CU M    2.6425 0 2.3896 0 1.5742 0 4.4382-1
 H, KJ/KG        -1065.87 -1115.55 -1523.79 -2506.12
 U, KJ/KG        -1898.41 -1936.82 -2261.53 -3081.47
 G, KJ/KG        -20872.4 -20700.9 -19290.4 -16991.5
 S, KJ/(KG)(K)    12.8024  12.8315  12.8315  12.8315

 M, (1/n)          15.451   15.453   15.605   16.314
 MW, MOL WT        14.924   14.918   14.979   15.062
 (dLV/dLP)t      -1.01861 -1.01875 -1.02743 -1.06084
 (dLV/dLT)p        1.1647   1.1694   1.2903   1.8843
 Cp, KJ/(KG)(K)    3.1368   3.1732   3.9977   9.0679
 GAMMAs            1.2725   1.2709   1.2414   1.1611
 SON VEL,M/SEC     1029.3   1021.6    957.0    817.3
 MACH NUMBER        0.000    0.309    1.000    2.077

 PERFORMANCE PARAMETERS

 Ae/At                      2.0000   1.0000   2.0000
 CSTAR, M/SEC               1383.4   1383.4   1383.4
 CF                         0.2279   0.6918   1.2268
 Ivac, M/SEC                2920.6   1727.9   2036.2
 Isp, M/SEC                  315.2    957.0   1697.2

 MOLE FRACTIONS

 *CH             6.893-16 3.895-16 4.146-18 6.920-23
 CH2             1.943-11 1.296-11 5.798-13 2.856-16
 CH3             2.0503-6 1.6789-6 4.2422-7 1.2782-8
 CH2OH           5.308-11 4.081-11 9.012-12 1.494-13
 CH3O            2.588-12 1.912-12 3.136-13 2.592-15
 CH4             1.0784-2 1.0588-2 1.2690-2 1.5535-2
 CH3OH           1.8542-8 1.6466-8 1.2927-8 4.2539-9
 *CO             4.7012-1 4.6949-1 4.6120-1 4.0486-1
 *CO2            2.2373-3 2.3702-3 5.1817-3 2.4910-2
 COOH            1.421-10 1.178-10 4.699-11 3.182-12
 C2H             1.717-13 1.002-13 1.368-15 4.180-20
 C2H2,acetylene  7.4232-6 5.8682-6 9.5893-7 1.1189-8
 C2H2,vinylidene 2.871-11 1.874-11 7.069-13 2.266-16
 CH2CO,ketene    1.0465-6 8.7753-7 3.1787-7 1.9743-8
 O(CH)2O         8.844-13 6.910-13 2.071-13 6.328-15
 C2H3,vinyl      5.979-10 4.178-10 3.145-11 4.902-14
 CH3CO,acetyl    3.205-10 2.440-10 5.002-11 7.032-13
 C2H4            1.4694-5 1.2634-5 5.4813-6 5.5438-7
 C2H4O,ethylen-o 1.417-13 1.072-13 2.485-14 4.237-16
 CH3CHO,ethanal  1.4178-8 1.2111-8 7.0751-9 1.1367-9
 CH3COOH         3.641-11 3.223-11 3.515-11 2.055-11
 OHCH2COOH       2.180-16 1.763-16 1.364-16 2.697-17
 C2H5            1.942 -9 1.476 -9 2.947-10 4.017-12
 C2H6            9.8536-7 8.7902-7 7.0739-7 2.6065-7
 C2H5OH          1.442-11 1.187-11 7.321-12 1.085-12
 CH3OCH3         4.681-14 3.659-14 1.519-14 8.572-16
 C2O             7.483-13 4.871-13 1.826-14 5.587-18
 C3H3,1-propynl  1.811-14 1.083-14 2.470-16 2.072-20
 C3H3,2-propynl  6.625-10 4.450-10 2.478-11 1.858-14
 C3H4,allene     4.790 -9 3.546 -9 4.904-10 3.055-12
 C3H4,propyne    1.338 -8 9.977 -9 1.458 -9 1.036-11
 C3H4,cyclo-     4.635-12 3.135-12 2.183-13 2.550-16
 C3H5,allyl      2.257-10 1.624-10 2.146-11 1.086-13
 C3H6,propylene  1.735 -8 1.385 -8 4.777 -9 2.223-10
 C3H6,cyclo-     3.316-11 2.552-11 6.662-12 1.593-13
 C3H6O,propylox  1.444-16 1.022-16 1.989-17 1.790-19
 C3H6O,acetone   9.024-12 7.310-12 3.986-12 4.347-13
 C3H6O,propanal  3.074-12 2.394-12 9.684-13 5.151-14
 C3H7,n-propyl   4.773-13 3.312-13 4.625-14 2.129-16
 C3H7,i-propyl   4.824-13 3.390-13 5.212-14 3.010-16
 C3H8            2.542-10 2.076-10 1.192-10 1.560-11
 C3H8O,1propanol 3.398-15 2.566-15 1.147-15 6.243-17
 C3H8O,2propanol 3.954-15 3.027-15 1.501-15 1.063-16
 C3O2            1.585-10 1.219-10 2.313-11 2.850-13
 C4H2,butadiyne  4.419-11 2.755-11 7.335-13 1.017-16
 C4H4,1,3-cyclo- 1.393-15 8.409-16 2.448-17 3.406-21
 C4H6,butadiene  9.256-11 6.649-11 1.027-11 6.876-14
 C4H6,1butyne    3.719-12 2.537-12 2.631-13 6.543-16
 C4H6,2butyne    4.419-12 3.092-12 3.889-13 1.538-15
 C4H6,cyclo-     1.058-13 7.295-14 8.253-15 2.568-17
 C4H8,1-butene   4.170-12 3.049-12 7.522-13 1.250-14
 C4H8,cis2-buten 2.012-12 1.488-12 4.009-13 8.202-15
 C4H8,tr2-butene 2.261-12 1.672-12 4.516-13 9.345-15
 C4H8,isobutene  2.720-12 2.024-12 5.715-13 1.318-14
 C4H8,cyclo-     1.289-15 9.157-16 1.814-16 1.789-18
 C4H9,n-butyl    3.219-16 2.071-16 2.274-17 4.716-20
 C4H9,i-butyl    2.027-16 1.316-16 1.547-17 3.807-20
 C4H9,s-butyl    2.169-16 1.397-16 1.550-17 3.265-20
 C4H10,n-butane  6.656-14 4.971-14 2.020-14 9.227-16
 C4H10,isobutane 2.457-14 1.851-14 8.053-15 4.355-16
 C5H6,1,3cyclo-  1.655-12 1.166-12 1.560-13 7.296-16
 C5H8,cyclo-     1.291-14 9.104-15 1.707-15 1.472-17
 C5H10,1-pentene 8.485-16 5.690-16 1.013-16 6.064-19
 C6H2            2.823-16 1.390-16 6.097-19 1.037-24
 C6H5,phenyl     8.850-16 5.326-16 1.794-17 3.201-21
 C6H6            1.966-11 1.467-11 3.032-12 4.069-14
 C6H5OH,phenol   2.244-15 1.587-15 3.072-16 2.714-18
 C7H7,benzyl     4.628-16 2.838-16 1.548-17 7.342-21
 C7H8            3.386-14 2.350-14 3.891-15 2.448-17
 C8H8,styrene    3.052-16 1.899-16 1.371-17 1.142-20
 *H              4.4136-6 3.6831-6 7.7436-7 1.9413-8
 HCO             6.237 -8 5.019 -8 1.122 -8 2.389-10
 HCCO            2.165-11 1.506-11 1.111-12 1.585-15
 *H2             4.7642-1 4.7645-1 4.6969-1 4.4727-1
 HCHO,formaldehy 2.2535-6 2.0187-6 1.2113-6 2.5797-7
 HCOOH           3.3040-8 3.0760-8 3.5230-8 2.8884-8
 H2O             6.3139-3 6.4899-3 1.1125-2 3.0672-2
 *O              1.527-14 1.032-14 5.168-16 3.315-19
 *OH             2.284 -9 1.837 -9 4.100-10 8.844-12
 C(gr)           3.4089-2 3.4588-2 4.0107-2 7.6753-2

  * THERMODYNAMIC PROPERTIES FITTED TO 20000.K

              THEORETICAL ROCKET PERFORMANCE ASSUMING EQUILIBRIUM

            COMPOSITION DURING EXPANSION FROM FINITE AREA COMBUSTOR

 Pin =   319.1 PSIA
 Ac/At =  2.0000      Pinj/Pinf =  1.055301
 CASE = test___________

             REACTANT                       MOLES         ENERGY      TEMP
                                                         KJ/KG-MOL      K
 FUEL        RP-1                       100.0000000    -24717.700    298.150
 OXIDANT     O2(L)                      100.0000000    -12979.000     90.170

 O/F=    1.03202  %FUEL= 49.212112  R,EQ.RATIO= 3.300000  PHI,EQ.RATIO= 3.300000

                 INJECTOR  COMB END  THROAT     EXIT
 Pinj/P            1.0000   1.1203   1.8879   8.5531
 P, BAR            22.000   19.637   11.653   2.5722
 T, K             1519.90  1500.03  1366.95  1122.88
 RHO, KG/CU M    2.6968 0 2.4395 0 1.6055 0 4.5131-1
 H, KJ/KG        -1076.35 -1124.77 -1523.51 -2491.18
 U, KJ/KG        -1892.12 -1929.75 -2249.33 -3061.12
 G, KJ/KG        -20462.4 -20300.7 -18998.3 -16845.8
 S, KJ/(KG)(K)    12.7549  12.7838  12.7838  12.7838

 M, (1/n)          15.491   15.493   15.659   16.381
 MW, MOL WT        14.734   14.727   14.787   14.856
 (dLV/dLP)t      -1.02166 -1.02182 -1.03107 -1.06397
 (dLV/dLT)p        1.1964   1.2019   1.3342   1.9317
 Cp, KJ/(KG)(K)    3.3374   3.3823   4.3062   9.4487
 GAMMAs            1.2635   1.2617   1.2322   1.1580
 SON VEL,M/SEC     1015.2   1007.8    945.7    812.4
 MACH NUMBER        0.000    0.309    1.000    2.071

 PERFORMANCE PARAMETERS

 Ae/At                      2.0000   1.0000   2.0000
 CSTAR, M/SEC               1373.0   1373.0   1373.0
 CF                         0.2267   0.6888   1.2252
 Ivac, M/SEC                2897.9   1713.2   2021.0
 Isp, M/SEC                  311.2    945.7   1682.2

 MOLE FRACTIONS

 *CH             2.985-16 1.694-16 2.100-18 4.849-23
 CH2             1.134-11 7.590-12 3.745-13 2.279-16
 CH3             1.6973-6 1.3918-6 3.6425-7 1.1858-8
 CH2OH           4.624-11 3.561-11 8.055-12 1.401-13
 CH3O            2.140-12 1.585-12 2.692-13 2.385-15
 CH4             1.2278-2 1.2055-2 1.4143-2 1.6566-2
 CH3OH           2.1149-8 1.8788-8 1.4405-8 4.4930-9
 *CO             4.5490-1 4.5418-1 4.4487-1 3.8765-1
 *CO2            2.6755-3 2.8319-3 5.9285-3 2.5794-2
 COOH            1.333-10 1.107-10 4.433-11 3.005-12
 C2H             7.761-14 4.550-14 7.170-16 2.981-20
 C2H2,acetylene  5.4169-6 4.2899-6 7.4178-7 9.7847-9
 C2H2,vinylidene 1.628-11 1.066-11 4.458-13 1.785-16
 CH2CO,ketene    9.4365-7 7.9209-7 2.9137-7 1.8651-8
 O(CH)2O         8.309-13 6.502-13 1.962-13 6.030-15
 C2H3,vinyl      4.017-10 2.815-10 2.281-11 4.173-14
 CH3CO,acetyl    2.756-10 2.101-10 4.427-11 6.568-13
 C2H4            1.4048-5 1.2089-5 5.3017-6 5.4982-7
 C2H4O,ethylen-o 1.309-13 9.922-14 2.338-14 4.108-16
 CH3CHO,ethanal  1.5366-8 1.3136-8 7.5668-9 1.1760-9
 CH3COOH         4.729-11 4.188-11 4.353-11 2.273-11
 OHCH2COOH       2.873-16 2.325-16 1.709-16 2.976-17
 C2H5            1.709 -9 1.301 -9 2.674-10 3.880-12
 C2H6            1.1598-6 1.0352-6 8.1403-7 2.8593-7
 C2H5OH          1.746-11 1.439-11 8.613-12 1.193-12
 CH3OCH3         5.294-14 4.143-14 1.692-14 9.166-16
 C2O             4.122-13 2.692-13 1.118-14 4.247-18
 C3H3,1-propynl  9.908-15 5.946-15 1.517-16 1.620-20
 C3H3,2-propynl  4.226-10 2.847-10 1.724-11 1.548-14
 C3H4,allene     3.760 -9 2.789 -9 4.046-10 2.795-12
 C3H4,propyne    1.060 -8 7.923 -9 1.212 -9 9.508-12
 C3H4,cyclo-     3.232-12 2.192-12 1.637-13 2.222-16
 C3H5,allyl      1.849-10 1.333-10 1.839-11 1.019-13
 C3H6,propylene  1.765 -8 1.411 -8 4.885 -9 2.297-10
 C3H6,cyclo-     3.213-11 2.477-11 6.556-12 1.615-13
 C3H6O,propylox  1.433-16 1.016-16 1.994-17 1.815-19
 C3H6O,acetone   1.070-11 8.675-12 4.609-12 4.737-13
 C3H6O,propanal  3.460-12 2.699-12 1.074-12 5.499-14
 C3H7,n-propyl   4.371-13 3.040-13 4.358-14 2.123-16
 C3H7,i-propyl   4.492-13 3.164-13 4.977-14 3.020-16
 C3H8            3.124-10 2.554-10 1.429-10 1.769-11
 C3H8O,1propanol 4.308-15 3.258-15 1.409-15 7.105-17
 C3H8O,2propanol 5.103-15 3.912-15 1.871-15 1.219-16
 C3O2            1.243-10 9.581-11 1.884-11 2.482-13
 C4H2,butadiyne  2.359-11 1.476-11 4.408-13 7.824-17
 C4H4,1,3-cyclo- 8.359-16 5.064-16 1.626-17 2.791-21
 C4H6,butadiene  8.192-11 5.898-11 9.398-12 6.717-14
 C4H6,1butyne    3.075-12 2.103-12 2.277-13 6.209-16
 C4H6,2butyne    3.778-12 2.649-12 3.457-13 1.479-15
 C4H6,cyclo-     8.874-14 6.136-14 7.230-15 2.453-17
 C4H8,1-butene   4.430-12 3.246-12 8.017-13 1.336-14
 C4H8,cis2-buten 2.171-12 1.609-12 4.325-13 8.814-15
 C4H8,tr2-butene 2.440-12 1.808-12 4.874-13 1.005-14
 C4H8,isobutene  2.958-12 2.206-12 6.206-13 1.421-14
 C4H8,cyclo-     1.319-15 9.386-16 1.876-16 1.883-18
 C4H9,n-butyl    3.129-16 2.019-16 2.262-17 4.896-20
 C4H9,i-butyl    1.994-16 1.298-16 1.555-17 3.972-20
 C4H9,s-butyl    2.112-16 1.365-16 1.544-17 3.390-20
 C4H10,n-butane  8.529-14 6.380-14 2.520-14 1.082-15
 C4H10,isobutane 3.186-14 2.404-14 1.014-14 5.130-16
 C5H6,1,3cyclo-  1.429-12 1.010-12 1.399-13 7.053-16
 C5H8,cyclo-     1.308-14 9.244-15 1.751-15 1.543-17
 C5H10,1-pentene 9.436-16 6.342-16 1.126-16 6.699-19
 C6H2            1.104-16 5.465-17 2.851-19 7.021-25
 C6H5,phenyl     5.728-16 3.460-16 1.271-17 2.726-21
 C6H6            1.830-11 1.369-11 2.888-12 4.055-14
 C6H5OH,phenol   2.224-15 1.576-15 3.076-16 2.751-18
 C7H7,benzyl     3.601-16 2.216-16 1.280-17 6.857-21
 C7H8            3.358-14 2.336-14 3.923-15 2.543-17
 C8H8,styrene    2.623-16 1.638-16 1.231-17 1.118-20
 *H              3.1937-6 2.6697-6 5.9427-7 1.6829-8
 HCO             4.919 -8 3.964 -8 9.202 -9 2.119-10
 HCCO            1.410-11 9.837-12 7.813-13 1.301-15
 *H2             4.7378-1 4.7381-1 4.6668-1 4.4455-1
 HCHO,formaldehy 2.2167-6 1.9867-6 1.1911-6 2.5257-7
 HCOOH           3.9095-8 3.6403-8 4.0240-8 3.0285-8
 H2O             7.4434-3 7.6462-3 1.2659-2 3.2346-2
 *O              8.834-15 5.988-15 3.298-16 2.576-19
 *OH             1.800 -9 1.450 -9 3.364-10 7.852-12
 C(gr)           4.8890-2 4.9457-2 5.5708-2 9.3091-2

  * THERMODYNAMIC PROPERTIES FITTED TO 20000.K

              THEORETICAL ROCKET PERFORMANCE ASSUMING EQUILIBRIUM

            COMPOSITION DURING EXPANSION FROM FINITE AREA COMBUSTOR

 Pin =   319.1 PSIA
 Ac/At =  2.0000      Pinj/Pinf =  1.055023
 CASE = test___________

             REACTANT                       MOLES         ENERGY      TEMP
                                                         KJ/KG-MOL      K
 FUEL        RP-1                       100.0000000    -24717.700    298.150
 OXIDANT     O2(L)                      100.0000000    -12979.000     90.170

 O/F=    1.00167  %FUEL= 49.958371  R,EQ.RATIO= 3.400000  PHI,EQ.RATIO= 3.400000

                 INJECTOR  COMB END  THROAT     EXIT
 Pinj/P            1.0000   1.1197   1.8821   8.4978
 P, BAR            22.000   19.648   11.689   2.5889
 T, K             1495.30  1476.25  1350.96  1117.10
 RHO, KG/CU M    2.7492 0 2.4875 0 1.6356 0 4.5849-1
 H, KJ/KG        -1086.52 -1133.78 -1523.83 -2477.78
 U, KJ/KG        -1886.74 -1923.67 -2238.51 -3042.44
 G, KJ/KG        -20088.3 -19935.7 -18730.1 -16705.5
 S, KJ/(KG)(K)    12.7076  12.7363  12.7363  12.7363

 M, (1/n)          15.537   15.539   15.717   16.449
 MW, MOL WT        14.558   14.551   14.608   14.664
 (dLV/dLP)t      -1.02490 -1.02509 -1.03479 -1.06699
 (dLV/dLT)p        1.2309   1.2373   1.3797   1.9775
 Cp, KJ/(KG)(K)    3.5575   3.6111   4.6268   9.8136
 GAMMAs            1.2547   1.2527   1.2238   1.1553
 SON VEL,M/SEC     1002.0    994.7    935.2    807.7
 MACH NUMBER        0.000    0.309    1.000    2.065

 PERFORMANCE PARAMETERS

 Ae/At                      2.0000   1.0000   2.0000
 CSTAR, M/SEC               1363.3   1363.3   1363.3
 CF                         0.2255   0.6860   1.2236
 Ivac, M/SEC                2876.6   1699.4   2006.6
 Isp, M/SEC                  307.5    935.2   1668.1

 MOLE FRACTIONS

 *CH             1.363-16 7.779-17 1.116-18 3.435-23
 CH2             6.847-12 4.599-12 2.494-13 1.830-16
 CH3             1.4208-6 1.1669-6 3.1595-7 1.1018-8
 CH2OH           4.056-11 3.129-11 7.242-12 1.315-13
 CH3O            1.788-12 1.327-12 2.331-13 2.195-15
 CH4             1.3850-2 1.3596-2 1.5628-2 1.7611-2
 CH3OH           2.3868-8 2.1207-8 1.5889-8 4.7257-9
 *CO             4.4036-1 4.3954-1 4.2927-1 3.7139-1
 *CO2            3.1547-3 3.3351-3 6.6928-3 2.6627-2
 COOH            1.252-10 1.041-10 4.184-11 2.836-12
 C2H             3.689-14 2.174-14 3.935-16 2.148-20
 C2H2,acetylene  4.0305-6 3.1987-6 5.8405-7 8.5890-9
 C2H2,vinylidene 9.564-12 6.286-12 2.903-13 1.415-16
 CH2CO,ketene    8.5499-7 7.1842-7 2.6814-7 1.7621-8
 O(CH)2O         7.817-13 6.125-13 1.859-13 5.736-15
 C2H3,vinyl      2.766-10 1.944-10 1.692-11 3.567-14
 CH3CO,acetyl    2.388-10 1.824-10 3.944-11 6.135-13
 C2H4            1.3454-5 1.1590-5 5.1360-6 5.4479-7
 C2H4O,ethylen-o 1.213-13 9.210-14 2.204-14 3.977-16
 CH3CHO,ethanal  1.6533-8 1.4141-8 8.0349-9 1.2123-9
 CH3COOH         6.023-11 5.333-11 5.288-11 2.497-11
 OHCH2COOH       3.707-16 3.001-16 2.097-16 3.257-17
 C2H5            1.514 -9 1.155 -9 2.440-10 3.745-12
 C2H6            1.3492-6 1.2046-6 9.2652-7 3.1214-7
 C2H5OH          2.084-11 1.718-11 9.991-12 1.304-12
 CH3OCH3         5.926-14 4.643-14 1.865-14 9.747-16
 C2O             2.355-13 1.544-13 7.079-15 3.252-18
 C3H3,1-propynl  5.629-15 3.392-15 9.643-17 1.275-20
 C3H3,2-propynl  2.772-10 1.874-10 1.230-11 1.297-14
 C3H4,allene     2.994 -9 2.226 -9 3.382-10 2.561-12
 C3H4,propyne    8.521 -9 6.381 -9 1.020 -9 8.743-12
 C3H4,cyclo-     2.304-12 1.568-12 1.252-13 1.942-16
 C3H5,allyl      1.532-10 1.108-10 1.592-11 9.569-14
 C3H6,propylene  1.791 -8 1.434 -8 4.984 -9 2.365-10
 C3H6,cyclo-     3.116-11 2.407-11 6.455-12 1.633-13
 C3H6O,propylox  1.419-16 1.009-16 1.994-17 1.834-19
 C3H6O,acetone   1.252-11 1.016-11 5.262-12 5.131-13
 C3H6O,propanal  3.857-12 3.012-12 1.181-12 5.839-14
 C3H7,n-propyl   4.019-13 2.802-13 4.121-14 2.112-16
 C3H7,i-propyl   4.196-13 2.962-13 4.764-14 3.023-16
 C3H8            3.784-10 3.096-10 1.689-10 1.993-11
 C3H8O,1propanol 5.366-15 4.063-15 1.701-15 8.019-17
 C3H8O,2propanol 6.463-15 4.959-15 2.290-15 1.386-16
 C3O2            9.885-11 7.629-11 1.551-11 2.166-13
 C4H2,butadiyne  1.310-11 8.231-12 2.745-13 6.062-17
 C4H4,1,3-cyclo- 5.177-16 3.150-16 1.111-17 2.297-21
 C4H6,butadiene  7.299-11 5.269-11 8.647-12 6.554-14
 C4H6,1butyne    2.570-12 1.763-12 1.989-13 5.890-16
 C4H6,2butyne    3.258-12 2.291-12 3.095-13 1.421-15
 C4H6,cyclo-     7.520-14 5.215-14 6.390-15 2.342-17
 C4H8,1-butene   4.682-12 3.436-12 8.497-13 1.420-14
 C4H8,cis2-buten 2.327-12 1.727-12 4.636-13 9.423-15
 C4H8,tr2-butene 2.616-12 1.943-12 5.227-13 1.075-14
 C4H8,isobutene  3.195-12 2.386-12 6.694-13 1.525-14
 C4H8,cyclo-     1.345-15 9.593-16 1.933-16 1.973-18
 C4H9,n-butyl    3.043-16 1.969-16 2.250-17 5.060-20
 C4H9,i-butyl    1.961-16 1.280-16 1.560-17 4.124-20
 C4H9,s-butyl    2.058-16 1.333-16 1.537-17 3.504-20
 C4H10,n-butane  1.074-13 8.045-14 3.091-14 1.257-15
 C4H10,isobutane 4.056-14 3.065-14 1.255-14 5.991-16
 C5H6,1,3cyclo-  1.244-12 8.814-13 1.263-13 6.811-16
 C5H8,cyclo-     1.322-14 9.365-15 1.792-15 1.611-17
 C5H10,1-pentene 1.040-15 7.008-16 1.241-16 7.350-19
 C6H5,phenyl     3.809-16 2.310-16 9.220-18 2.330-21
 C6H6            1.709-11 1.281-11 2.758-12 4.033-14
 C6H5OH,phenol   2.201-15 1.563-15 3.073-16 2.777-18
 C7H7,benzyl     2.845-16 1.757-16 1.073-17 6.400-21
 C7H8            3.328-14 2.321-14 3.950-15 2.630-17
 C8H8,styrene    2.273-16 1.424-16 1.114-17 1.093-20
 *H              2.3586-6 1.9756-6 4.6457-7 1.4655-8
 HCO             3.932 -8 3.173 -8 7.639 -9 1.885-10
 HCCO            9.424-12 6.595-12 5.621-13 1.072-15
 *H2             4.7097-1 4.7100-1 4.6360-1 4.4184-1
 HCHO,formaldehy 2.1787-6 1.9535-6 1.1700-6 2.4703-7
 HCOOH           4.5645-8 4.2492-8 4.5359-8 3.1614-8
 H2O             8.6660-3 8.8946-3 1.4239-2 3.4000-2
 *O              5.287-15 3.597-15 2.169-16 2.015-19
 *OH             1.438 -9 1.160 -9 2.793-10 6.988-12
 C(gr)           6.2979-2 6.3615-2 7.0561-2 1.0854-1

  * THERMODYNAMIC PROPERTIES FITTED TO 20000.K

              THEORETICAL ROCKET PERFORMANCE ASSUMING EQUILIBRIUM

            COMPOSITION DURING EXPANSION FROM FINITE AREA COMBUSTOR

 Pin =   319.1 PSIA
 Ac/At =  2.0000      Pinj/Pinf =  1.054766
 CASE = test___________

             REACTANT                       MOLES         ENERGY      TEMP
                                                         KJ/KG-MOL      K
 FUEL        RP-1                       100.0000000    -24717.700    298.150
 OXIDANT     O2(L)                      100.0000000    -12979.000     90.170

 O/F=    0.97305  %FUEL= 50.683017  R,EQ.RATIO= 3.500000  PHI,EQ.RATIO= 3.500000

                 INJECTOR  COMB END  THROAT     EXIT
 Pinj/P            1.0000   1.1191   1.8769   8.4486
 P, BAR            22.000   19.659   11.722   2.6040
 T, K             1473.07  1454.76  1336.43  1111.55
 RHO, KG/CU M    2.7997 0 2.5338 0 1.6644 0 4.6540-1
 H, KJ/KG        -1096.39 -1142.59 -1524.67 -2465.72
 U, KJ/KG        -1882.18 -1918.46 -2228.93 -3025.23
 G, KJ/KG        -19746.6 -19602.4 -18483.0 -16570.5
 S, KJ/(KG)(K)    12.6608  12.6893  12.6893  12.6893

 M, (1/n)          15.587   15.590   15.778   16.518
 MW, MOL WT        14.396   14.387   14.441   14.484
 (dLV/dLP)t      -1.02831 -1.02852 -1.03855 -1.06991
 (dLV/dLT)p        1.2678   1.2751   1.4263   2.0217
 Cp, KJ/(KG)(K)    3.7946   3.8571   4.9554  10.1614
 GAMMAs            1.2463   1.2442   1.2162   1.1528
 SON VEL,M/SEC      989.6    982.5    925.5    803.1
 MACH NUMBER        0.000    0.309    1.000    2.061

 PERFORMANCE PARAMETERS

 Ae/At                      2.0000   1.0000   2.0000
 CSTAR, M/SEC               1354.1   1354.1   1354.1
 CF                         0.2245   0.6835   1.2222
 Ivac, M/SEC                2856.4   1686.5   1993.0
 Isp, M/SEC                  304.0    925.5   1654.9

 MOLE FRACTIONS

 CH2             4.272-12 2.881-12 1.708-13 1.478-16
 CH3             1.2025-6 9.8926-7 2.7660-7 1.0253-8
 CH2OH           3.582-11 2.768-11 6.545-12 1.233-13
 CH3O            1.510-12 1.123-12 2.034-13 2.022-15
 CH4             1.5483-2 1.5195-2 1.7135-2 1.8669-2
 CH3OH           2.6664-8 2.3691-8 1.7366-8 4.9515-9
 *CO             4.2642-1 4.2551-1 4.1436-1 3.5601-1
 *CO2            3.6687-3 3.8728-3 7.4643-3 2.7406-2
 COOH            1.178-10 9.798-11 3.950-11 2.674-12
 C2H             1.842-14 1.092-14 2.250-16 1.562-20
 C2H2,acetylene  3.0563-6 2.4312-6 4.6732-7 7.5665-9
 C2H2,vinylidene 5.817-12 3.839-12 1.947-13 1.130-16
 CH2CO,ketene    7.7827-7 6.5462-7 2.4765-7 1.6649-8
 O(CH)2O         7.362-13 5.775-13 1.762-13 5.449-15
 C2H3,vinyl      1.951-10 1.376-10 1.281-11 3.061-14
 CH3CO,acetyl    2.085-10 1.596-10 3.534-11 5.731-13
 C2H4            1.2909-5 1.1131-5 4.9826-6 5.3939-7
 C2H4O,ethylen-o 1.128-13 8.576-14 2.081-14 3.844-16
 CH3CHO,ethanal  1.7665-8 1.5116-8 8.4766-9 1.2457-9
 CH3COOH         7.525-11 6.660-11 6.315-11 2.725-11
 OHCH2COOH       4.683-16 3.791-16 2.522-16 3.538-17
 C2H5            1.351 -9 1.033 -9 2.240-10 3.613-12
 C2H6            1.5520-6 1.3858-6 1.0441-6 3.3926-7
 C2H5OH          2.452-11 2.022-11 1.144-11 1.416-12
 CH3OCH3         6.571-14 5.152-14 2.037-14 1.031-15
 C2O             1.395-13 9.181-14 4.617-15 2.509-18
 C3H3,1-propynl  3.317-15 2.009-15 6.323-17 1.010-20
 C3H3,2-propynl  1.868-10 1.268-10 8.977-12 1.091-14
 C3H4,allene     2.419 -9 1.803 -9 2.860-10 2.350-12
 C3H4,propyne    6.941 -9 5.210 -9 8.686-10 8.050-12
 C3H4,cyclo-     1.678-12 1.146-12 9.751-14 1.702-16
 C3H5,allyl      1.285-10 9.314-11 1.391-11 8.989-14
 C3H6,propylene  1.813 -8 1.453 -8 5.073 -9 2.429-10
 C3H6,cyclo-     3.025-11 2.341-11 6.357-12 1.647-13
 C3H6O,propylox  1.404-16 9.994-17 1.989-17 1.846-19
 C3H6O,acetone   1.446-11 1.174-11 5.937-12 5.528-13
 C3H6O,propanal  4.259-12 3.329-12 1.285-12 6.169-14
 C3H7,n-propyl   3.712-13 2.594-13 3.908-14 2.096-16
 C3H7,i-propyl   3.932-13 2.782-13 4.569-14 3.019-16
 C3H8            4.518-10 3.699-10 1.972-10 2.232-11
 C3H8O,1propanol 6.572-15 4.979-15 2.022-15 8.982-17
 C3H8O,2propanol 8.039-15 6.172-15 2.756-15 1.564-16
 C3O2            7.957-11 6.152-11 1.290-11 1.894-13
 C4H2,butadiyne  7.559-12 4.772-12 1.766-13 4.731-17
 C4H4,1,3-cyclo- 3.308-16 2.022-16 7.795-18 1.900-21
 C4H6,butadiene  6.548-11 4.738-11 7.997-12 6.387-14
 C4H6,1butyne    2.172-12 1.494-12 1.753-13 5.584-16
 C4H6,2butyne    2.834-12 1.998-12 2.791-13 1.364-15
 C4H6,cyclo-     6.437-14 4.476-14 5.692-15 2.235-17
 C4H8,1-butene   4.924-12 3.620-12 8.962-13 1.503-14
 C4H8,cis2-buten 2.480-12 1.844-12 4.941-13 1.003-14
 C4H8,tr2-butene 2.789-12 2.074-12 5.573-13 1.144-14
 C4H8,isobutene  3.429-12 2.565-12 7.174-13 1.628-14
 C4H8,cyclo-     1.368-15 9.779-16 1.987-16 2.059-18
 C4H9,n-butyl    2.961-16 1.921-16 2.236-17 5.207-20
 C4H9,i-butyl    1.928-16 1.262-16 1.563-17 4.265-20
 C4H9,s-butyl    2.005-16 1.303-16 1.529-17 3.608-20
 C4H10,n-butane  1.330-13 9.972-14 3.733-14 1.449-15
 C4H10,isobutane 5.073-14 3.838-14 1.529-14 6.939-16
 C5H6,1,3cyclo-  1.092-12 7.757-13 1.148-13 6.572-16
 C5H8,cyclo-     1.334-14 9.468-15 1.830-15 1.675-17
 C5H10,1-pentene 1.138-15 7.681-16 1.357-16 8.014-19
 C6H5,phenyl     2.600-16 1.584-16 6.835-18 1.997-21
 C6H6            1.602-11 1.203-11 2.640-12 4.005-14
 C6H5OH,phenol   2.176-15 1.548-15 3.063-16 2.794-18
 C7H7,benzyl     2.280-16 1.414-16 9.093-18 5.972-21
 C7H8            3.296-14 2.303-14 3.971-15 2.711-17
 C8H8,styrene    1.987-16 1.249-16 1.013-17 1.066-20
 *H              1.7767-6 1.4915-6 3.6933-7 1.2817-8
 HCO             3.184 -8 2.574 -8 6.411 -9 1.680-10
 HCCO            6.460-12 4.535-12 4.130-13 8.876-16
 *H2             4.6801-1 4.6805-1 4.6046-1 4.3913-1
 HCHO,formaldehy 2.1397-6 1.9193-6 1.1481-6 2.4140-7
 HCOOH           5.2594-8 4.8938-8 5.0518-8 3.2867-8
 H2O             9.9678-3 1.0220-2 1.5850-2 3.5634-2
 *O              3.270-15 2.233-15 1.466-16 1.587-19
 *OH             1.164 -9 9.411-10 2.345-10 6.233-12
 C(gr)           7.6422-2 7.7127-2 8.4719-2 1.2315-1

  * THERMODYNAMIC PROPERTIES FITTED TO 20000.K

              THEORETICAL ROCKET PERFORMANCE ASSUMING EQUILIBRIUM

            COMPOSITION DURING EXPANSION FROM FINITE AREA COMBUSTOR

 Pin =   319.1 PSIA
 Ac/At =  2.0000      Pinj/Pinf =  1.054530
 CASE = test___________

             REACTANT                       MOLES         ENERGY      TEMP
                                                         KJ/KG-MOL      K
 FUEL        RP-1                       100.0000000    -24717.700    298.150
 OXIDANT     O2(L)                      100.0000000    -12979.000     90.170

 O/F=    0.94602  %FUEL= 51.386975  R,EQ.RATIO= 3.600000  PHI,EQ.RATIO= 3.600000

                 INJECTOR  COMB END  THROAT     EXIT
 Pinj/P            1.0000   1.1186   1.8722   8.4046
 P, BAR            22.000   19.668   11.751   2.6176
 T, K             1452.93  1435.31  1323.16  1106.22
 RHO, KG/CU M    2.8484 0 2.5783 0 1.6921 0 4.7207-1
 H, KJ/KG        -1105.99 -1151.20 -1525.95 -2454.83
 U, KJ/KG        -1878.35 -1914.03 -2220.43 -3009.33
 G, KJ/KG        -19433.9 -19297.3 -18254.3 -16440.3
 S, KJ/(KG)(K)    12.6144  12.6427  12.6427  12.6427

 M, (1/n)          15.641   15.644   15.841   16.587
 MW, MOL WT        14.245   14.236   14.285   14.315
 (dLV/dLP)t      -1.03183 -1.03206 -1.04231 -1.07271
 (dLV/dLT)p        1.3067   1.3148   1.4734   2.0640
 Cp, KJ/(KG)(K)    4.0461   4.1173   5.2882  10.4914
 GAMMAs            1.2384   1.2363   1.2094   1.1505
 SON VEL,M/SEC      978.0    971.1    916.5    798.7
 MACH NUMBER        0.000    0.310    1.000    2.056

 PERFORMANCE PARAMETERS

 Ae/At                      2.0000   1.0000   2.0000
 CSTAR, M/SEC               1345.3   1345.3   1345.3
 CF                         0.2235   0.6812   1.2209
 Ivac, M/SEC                2837.4   1674.2   1980.1
 Isp, M/SEC                  300.7    916.5   1642.5

 MOLE FRACTIONS

 CH2             2.750-12 1.863-12 1.199-13 1.202-16
 CH3             1.0284-6 8.4754-7 2.4418-7 9.5547-9
 CH2OH           3.184-11 2.464-11 5.942-12 1.157-13
 CH3O            1.287-12 9.593-13 1.788-13 1.863-15
 CH4             1.7164-2 1.6839-2 1.8658-2 1.9739-2
 CH3OH           2.9501-8 2.6208-8 1.8824-8 5.1699-9
 *CO             4.1305-1 4.1205-1 4.0010-1 3.4144-1
 *CO2            4.2101-3 4.4372-3 8.2341-3 2.8131-2
 COOH            1.110-10 9.235-11 3.731-11 2.520-12
 C2H             9.636-15 5.744-15 1.336-16 1.147-20
 C2H2,acetylene  2.3599-6 1.8817-6 3.7940-7 6.6888-9
 C2H2,vinylidene 3.657-12 2.424-12 1.341-13 9.076-17
 CH2CO,ketene    7.1157-7 5.9913-7 2.2947-7 1.5735-8
 O(CH)2O         6.941-13 5.451-13 1.670-13 5.171-15
 C2H3,vinyl      1.408-10 9.962-11 9.871-12 2.637-14
 CH3CO,acetyl    1.834-10 1.406-10 3.183-11 5.355-13
 C2H4            1.2410-5 1.0711-5 4.8403-6 5.3369-7
 C2H4O,ethylen-o 1.051-13 8.009-14 1.969-14 3.711-16
 CH3CHO,ethanal  1.8751-8 1.6049-8 8.8902-9 1.2762-9
 CH3COOH         9.232-11 8.165-11 7.423-11 2.957-11
 OHCH2COOH       5.798-16 4.691-16 2.980-16 3.817-17
 C2H5            1.214 -9 9.296-10 2.066-10 3.485-12
 C2H6            1.7664-6 1.5774-6 1.1662-6 3.6722-7
 C2H5OH          2.847-11 2.348-11 1.296-11 1.531-12
 CH3OCH3         7.218-14 5.664-14 2.206-14 1.086-15
 C2O             8.546-14 5.649-14 3.095-15 1.948-18
 C3H3,1-propynl  2.025-15 1.232-15 4.263-17 8.049-21
 C3H3,2-propynl  1.292-10 8.802-11 6.691-12 9.215-15
 C3H4,allene     1.981 -9 1.480 -9 2.445-10 2.159-12
 C3H4,propyne    5.728 -9 4.311 -9 7.471-10 7.423-12
 C3H4,cyclo-     1.248-12 8.554-13 7.720-14 1.496-16
 C3H5,allyl      1.089-10 7.917-11 1.226-11 8.448-14
 C3H6,propylene  1.832 -8 1.471 -8 5.153 -9 2.489-10
 C3H6,cyclo-     2.940-11 2.279-11 6.262-12 1.658-13
 C3H6O,propylox  1.386-16 9.889-17 1.980-17 1.852-19
 C3H6O,acetone   1.650-11 1.340-11 6.629-12 5.925-13
 C3H6O,propanal  4.662-12 3.646-12 1.388-12 6.489-14
 C3H7,n-propyl   3.443-13 2.412-13 3.716-14 2.076-16
 C3H7,i-propyl   3.697-13 2.622-13 4.391-14 3.008-16
 C3H8            5.325-10 4.362-10 2.276-10 2.485-11
 C3H8O,1propanol 7.919-15 6.003-15 2.369-15 9.992-17
 C3H8O,2propanol 9.829-15 7.550-15 3.268-15 1.753-16
 C3O2            6.481-11 5.020-11 1.082-11 1.659-13
 C4H2,butadiyne  4.525-12 2.871-12 1.170-13 3.718-17
 C4H4,1,3-cyclo- 2.177-16 1.337-16 5.598-18 1.578-21
 C4H6,butadiene  5.912-11 4.288-11 7.430-12 6.218-14
 C4H6,1butyne    1.854-12 1.279-12 1.557-13 5.294-16
 C4H6,2butyne    2.486-12 1.757-12 2.533-13 1.309-15
 C4H6,cyclo-     5.564-14 3.880-14 5.106-15 2.131-17
 C4H8,1-butene   5.155-12 3.796-12 9.409-13 1.584-14
 C4H8,cis2-buten 2.628-12 1.957-12 5.237-13 1.063-14
 C4H8,tr2-butene 2.957-12 2.202-12 5.910-13 1.213-14
 C4H8,isobutene  3.658-12 2.740-12 7.647-13 1.731-14
 C4H8,cyclo-     1.389-15 9.947-16 2.036-16 2.140-18
 C4H9,n-butyl    2.883-16 1.876-16 2.221-17 5.340-20
 C4H9,i-butyl    1.895-16 1.244-16 1.565-17 4.394-20
 C4H9,s-butyl    1.956-16 1.274-16 1.520-17 3.700-20
 C4H10,n-butane  1.621-13 1.217-13 4.448-14 1.659-15
 C4H10,isobutane 6.243-14 4.726-14 1.835-14 7.979-16
 C5H6,1,3cyclo-  9.662-13 6.881-13 1.049-13 6.337-16
 C5H8,cyclo-     1.343-14 9.556-15 1.864-15 1.735-17
 C5H10,1-pentene 1.235-15 8.356-16 1.473-16 8.689-19
 C6H5,phenyl     1.820-16 1.114-16 5.168-18 1.717-21
 C6H6            1.507-11 1.134-11 2.533-12 3.971-14
 C6H5OH,phenol   2.147-15 1.530-15 3.047-16 2.803-18
 C7H7,benzyl     1.854-16 1.154-16 7.788-18 5.573-21
 C7H8            3.263-14 2.285-14 3.988-15 2.784-17
 C8H8,styrene    1.750-16 1.104-16 9.275-18 1.038-20
 *H              1.3638-6 1.1476-6 2.9810-7 1.1254-8
 HCO             2.611 -8 2.115 -8 5.434 -9 1.501-10
 HCCO            4.534-12 3.193-12 3.092-13 7.382-16
 *H2             4.6494-1 4.6500-1 4.5730-1 4.3644-1
 HCHO,formaldehy 2.0998-6 1.8841-6 1.1257-6 2.3572-7
 HCOOH           5.9843-8 5.5645-8 5.5656-8 3.4044-8
 H2O             1.1334-2 1.1608-2 1.7477-2 3.7242-2
 *O              2.086-15 1.430-15 1.016-16 1.257-19
 *OH             9.545-10 7.729-10 1.988-10 5.572-12
 C(gr)           8.9272-2 9.0045-2 9.8226-2 1.3701-1

  * THERMODYNAMIC PROPERTIES FITTED TO 20000.K

              THEORETICAL ROCKET PERFORMANCE ASSUMING EQUILIBRIUM

            COMPOSITION DURING EXPANSION FROM FINITE AREA COMBUSTOR

 Pin =   319.1 PSIA
 Ac/At =  2.0000      Pinj/Pinf =  1.054313
 CASE = test___________

             REACTANT                       MOLES         ENERGY      TEMP
                                                         KJ/KG-MOL      K
 FUEL        RP-1                       100.0000000    -24717.700    298.150
 OXIDANT     O2(L)                      100.0000000    -12979.000     90.170

 O/F=    0.92045  %FUEL= 52.071120  R,EQ.RATIO= 3.700000  PHI,EQ.RATIO= 3.700000

                 INJECTOR  COMB END  THROAT     EXIT
 Pinj/P            1.0000   1.1181   1.8680   8.3651
 P, BAR            22.000   19.677   11.777   2.6300
 T, K             1434.67  1417.66  1311.00  1101.08
 RHO, KG/CU M    2.8953 0 2.6212 0 1.7187 0 4.7852-1
 H, KJ/KG        -1115.31 -1159.62 -1527.60 -2444.97
 U, KJ/KG        -1875.16 -1910.30 -2212.86 -2994.57
 G, KJ/KG        -19147.0 -19017.3 -18041.8 -16314.8
 S, KJ/(KG)(K)    12.5686  12.5966  12.5966  12.5966

 M, (1/n)          15.699   15.702   15.907   16.657
 MW, MOL WT        14.104   14.094   14.139   14.156
 (dLV/dLP)t      -1.03543 -1.03567 -1.04605 -1.07540
 (dLV/dLT)p        1.3472   1.3561   1.5206   2.1045
 Cp, KJ/(KG)(K)    4.3087   4.3884   5.6219  10.8030
 GAMMAs            1.2310   1.2288   1.2033   1.1484
 SON VEL,M/SEC      967.2    960.4    908.1    794.5
 MACH NUMBER        0.000    0.310    1.000    2.053

 PERFORMANCE PARAMETERS

 Ae/At                      2.0000   1.0000   2.0000
 CSTAR, M/SEC               1337.0   1337.0   1337.0
 CF                         0.2227   0.6792   1.2197
 Ivac, M/SEC                2819.3   1662.7   1967.8
 Isp, M/SEC                  297.7    908.1   1630.7

 MOLE FRACTIONS

 CH2             1.824-12 1.240-12 8.616-14 9.820-17
 CH3             8.8828-7 7.3333-7 2.1719-7 8.9173-9
 CH2OH           2.847-11 2.207-11 5.418-12 1.086-13
 CH3O            1.107-12 8.269-13 1.581-13 1.718-15
 CH4             1.8878-2 1.8515-2 2.0190-2 2.0820-2
 CH3OH           3.2347-8 2.8731-8 2.0253-8 5.3805-9
 *CO             4.0021-1 3.9912-1 3.8646-1 3.2764-1
 *CO2            4.7717-3 5.0207-3 8.9946-3 2.8802-2
 COOH            1.046-10 8.712-11 3.525-11 2.374-12
 C2H             5.266-15 3.157-15 8.206-17 8.500-21
 C2H2,acetylene  1.8533-6 1.4813-6 3.1208-7 5.9323-9
 C2H2,vinylidene 2.371-12 1.579-12 9.460-14 7.334-17
 CH2CO,ketene    6.5331-7 5.5059-7 2.1326-7 1.4874-8
 O(CH)2O         6.551-13 5.149-13 1.583-13 4.902-15
 C2H3,vinyl      1.038-10 7.370-11 7.735-12 2.279-14
 CH3CO,acetyl    1.624-10 1.247-10 2.882-11 5.004-13
 C2H4            1.1952-5 1.0326-5 4.7078-6 5.2775-7
 C2H4O,ethylen-o 9.829-14 7.499-14 1.866-14 3.580-16
 CH3CHO,ethanal  1.9782-8 1.6934-8 9.2753-9 1.3040-9
 CH3COOH         1.113-10 9.839-11 8.603-11 3.191-11
 OHCH2COOH       7.046-16 5.697-16 3.467-16 4.091-17
 C2H5            1.098 -9 8.421-10 1.915-10 3.361-12
 C2H6            1.9908-6 1.7778-6 1.2921-6 3.9600-7
 C2H5OH          3.265-11 2.693-11 1.452-11 1.646-12
 CH3OCH3         7.862-14 6.173-14 2.372-14 1.140-15
 C2O             5.404-14 3.587-14 2.125-15 1.523-18
 C3H3,1-propynl  1.277-15 7.813-16 2.948-17 6.452-21
 C3H3,2-propynl  9.160-11 6.263-11 5.080-12 7.818-15
 C3H4,allene     1.643 -9 1.231 -9 2.110-10 1.987-12
 C3H4,propyne    4.786 -9 3.610 -9 6.485-10 6.854-12
 C3H4,cyclo-     9.464-13 6.509-13 6.202-14 1.319-16
 C3H5,allyl      9.330-11 6.800-11 1.088-11 7.943-14
 C3H6,propylene  1.849 -8 1.485 -8 5.226 -9 2.545-10
 C3H6,cyclo-     2.861-11 2.220-11 6.170-12 1.667-13
 C3H6O,propylox  1.368-16 9.772-17 1.968-17 1.854-19
 C3H6O,acetone   1.862-11 1.513-11 7.332-12 6.321-13
 C3H6O,propanal  5.060-12 3.960-12 1.489-12 6.798-14
 C3H7,n-propyl   3.207-13 2.252-13 3.543-14 2.054-16
 C3H7,i-propyl   3.487-13 2.478-13 4.228-14 2.992-16
 C3H8            6.199-10 5.080-10 2.599-10 2.752-11
 C3H8O,1propanol 9.401-15 7.129-15 2.741-15 1.105-16
 C3H8O,2propanol 1.183-14 9.088-15 3.824-15 1.951-16
 C3O2            5.338-11 4.141-11 9.155-12 1.456-13
 C4H2,butadiyne  2.804-12 1.787-12 7.963-14 2.941-17
 C4H4,1,3-cyclo- 1.473-16 9.086-17 4.105-18 1.317-21
 C4H6,butadiene  5.371-11 3.905-11 6.931-12 6.050-14
 C4H6,1butyne    1.599-12 1.106-12 1.392-13 5.019-16
 C4H6,2butyne    2.199-12 1.558-12 2.311-13 1.256-15
 C4H6,cyclo-     4.853-14 3.393-14 4.610-15 2.033-17
 C4H8,1-butene   5.374-12 3.963-12 9.839-13 1.663-14
 C4H8,cis2-buten 2.772-12 2.067-12 5.526-13 1.122-14
 C4H8,tr2-butene 3.119-12 2.326-12 6.238-13 1.281-14
 C4H8,isobutene  3.882-12 2.911-12 8.109-13 1.833-14
 C4H8,cyclo-     1.407-15 1.010-15 2.082-16 2.218-18
 C4H9,n-butyl    2.809-16 1.832-16 2.206-17 5.458-20
 C4H9,i-butyl    1.863-16 1.226-16 1.565-17 4.511-20
 C4H9,s-butyl    1.908-16 1.246-16 1.511-17 3.783-20
 C4H10,n-butane  1.947-13 1.463-13 5.234-14 1.886-15
 C4H10,isobutane 7.567-14 5.732-14 2.175-14 9.112-16
 C5H6,1,3cyclo-  8.613-13 6.150-13 9.639-14 6.107-16
 C5H8,cyclo-     1.351-14 9.631-15 1.894-15 1.792-17
 C5H10,1-pentene 1.332-15 9.027-16 1.589-16 9.373-19
 C6H5,phenyl     1.304-16 8.014-17 3.977-18 1.481-21
 C6H6            1.422-11 1.072-11 2.435-12 3.932-14
 C6H5OH,phenol   2.117-15 1.511-15 3.026-16 2.803-18
 C7H7,benzyl     1.527-16 9.540-17 6.734-18 5.201-21
 C7H8            3.229-14 2.266-14 4.000-15 2.851-17
 C8H8,styrene    1.554-16 9.832-17 8.530-18 1.009-20
 *H              1.0655-6 8.9860-7 2.4391-7 9.9203-9
 HCO             2.166 -8 1.757 -8 4.646 -9 1.344-10
 HCCO            3.255-12 2.299-12 2.355-13 6.165-16
 *H2             4.6179-1 4.6187-1 4.5411-1 4.3376-1
 HCHO,formaldehy 2.0593-6 1.8483-6 1.1029-6 2.3003-7
 HCOOH           6.7291-8 6.2520-8 6.0722-8 3.5141-8
 H2O             1.2749-2 1.3043-2 1.9108-2 3.8823-2
 *O              1.370-15 9.432-16 7.197-17 1.002-19
 *OH             7.918-10 6.422-10 1.700-10 4.993-12
 C(gr)           1.0157-1 1.0241-1 1.1112-1 1.5015-1

  * THERMODYNAMIC PROPERTIES FITTED TO 20000.K

              THEORETICAL ROCKET PERFORMANCE ASSUMING EQUILIBRIUM

            COMPOSITION DURING EXPANSION FROM FINITE AREA COMBUSTOR

 Pin =   319.1 PSIA
 Ac/At =  2.0000      Pinj/Pinf =  1.054116
 CASE = test___________

             REACTANT                       MOLES         ENERGY      TEMP
                                                         KJ/KG-MOL      K
 FUEL        RP-1                       100.0000000    -24717.700    298.150
 OXIDANT     O2(L)                      100.0000000    -12979.000     90.170

 O/F=    0.89623  %FUEL= 52.736275  R,EQ.RATIO= 3.800000  PHI,EQ.RATIO= 3.800000

                 INJECTOR  COMB END  THROAT     EXIT
 Pinj/P            1.0000   1.1176   1.8642   8.3296
 P, BAR            22.000   19.685   11.801   2.6412
 T, K             1418.05  1401.61  1299.81  1096.12
 RHO, KG/CU M    2.9406 0 2.6626 0 1.7443 0 4.8476-1
 H, KJ/KG        -1124.38 -1167.85 -1529.56 -2435.98
 U, KJ/KG        -1872.54 -1907.17 -2206.11 -2980.83
 G, KJ/KG        -18883.0 -18759.5 -17843.5 -16193.5
 S, KJ/(KG)(K)    12.5233  12.5511  12.5511  12.5511

 M, (1/n)          15.759   15.763   15.974   16.727
 MW, MOL WT        13.973   13.962   14.002   14.007
 (dLV/dLP)t      -1.03907 -1.03932 -1.04973 -1.07796
 (dLV/dLT)p        1.3887   1.3983   1.5676   2.1431
 Cp, KJ/(KG)(K)    4.5795   4.6673   5.9536  11.0961
 GAMMAs            1.2242   1.2220   1.1978   1.1465
 SON VEL,M/SEC      957.0    950.5    900.2    790.4
 MACH NUMBER        0.000    0.310    1.000    2.049

 PERFORMANCE PARAMETERS

 Ae/At                      2.0000   1.0000   2.0000
 CSTAR, M/SEC               1329.1   1329.1   1329.1
 CF                         0.2219   0.6773   1.2186
 Ivac, M/SEC                2802.1   1651.8   1956.0
 Isp, M/SEC                  294.9    900.2   1619.6

 MOLE FRACTIONS

 CH2             1.242-12 8.483-13 6.315-14 8.070-17
 CH3             7.7431-7 6.4033-7 1.9450-7 8.3341-9
 CH2OH           2.560-11 1.987-11 4.959-12 1.019-13
 CH3O            9.601-13 7.186-13 1.407-13 1.585-15
 CH4             2.0616-2 2.0211-2 2.1726-2 2.1910-2
 CH3OH           3.5177-8 3.1236-8 2.1647-8 5.5833-9
 *CO             3.8787-1 3.8670-1 3.7342-1 3.1456-1
 *CO2            5.3462-3 5.6156-3 9.7398-3 2.9421-2
 COOH            9.875-11 8.225-11 3.331-11 2.236-12
 C2H             2.996-15 1.807-15 5.194-17 6.351-21
 C2H2,acetylene  1.4784-6 1.1845-6 2.5974-7 5.2778-9
 C2H2,vinylidene 1.582-12 1.058-12 6.816-14 5.961-17
 CH2CO,ketene    6.0212-7 5.0791-7 1.9873-7 1.4065-8
 O(CH)2O         6.187-13 4.867-13 1.501-13 4.643-15
 C2H3,vinyl      7.809-11 5.561-11 6.151-12 1.978-14
 CH3CO,acetyl    1.447-10 1.113-10 2.620-11 4.678-13
 C2H4            1.1531-5 9.9716-6 4.5840-6 5.2162-7
 C2H4O,ethylen-o 9.214-14 7.040-14 1.770-14 3.450-16
 CH3CHO,ethanal  2.0752-8 1.7768-8 9.6317-9 1.3291-9
 CH3COOH         1.322-10 1.167-10 9.847-11 3.427-11
 OHCH2COOH       8.413-16 6.797-16 3.976-16 4.360-17
 C2H5            9.985-10 7.675-10 1.782-10 3.241-12
 C2H6            2.2238-6 1.9859-6 1.4214-6 4.2555-7
 C2H5OH          3.702-11 3.054-11 1.612-11 1.763-12
 CH3OCH3         8.496-14 6.674-14 2.534-14 1.191-15
 C2O             3.519-14 2.345-14 1.491-15 1.197-18
 C3H3,1-propynl  8.306-16 5.105-16 2.085-17 5.201-21
 C3H3,2-propynl  6.641-11 4.557-11 3.923-12 6.660-15
 C3H4,allene     1.379 -9 1.036 -9 1.837-10 1.832-12
 C3H4,propyne    4.044 -9 3.058 -9 5.675-10 6.338-12
 C3H4,cyclo-     7.307-13 5.042-13 5.048-14 1.166-16
 C3H5,allyl      8.071-11 5.897-11 9.730-12 7.474-14
 C3H6,propylene  1.863 -8 1.498 -8 5.290 -9 2.596-10
 C3H6,cyclo-     2.786-11 2.166-11 6.080-12 1.673-13
 C3H6O,propylox  1.348-16 9.645-17 1.952-17 1.850-19
 C3H6O,acetone   2.080-11 1.690-11 8.041-12 6.716-13
 C3H6O,propanal  5.451-12 4.268-12 1.586-12 7.095-14
 C3H7,n-propyl   2.999-13 2.111-13 3.385-14 2.029-16
 C3H7,i-propyl   3.299-13 2.350-13 4.077-14 2.972-16
 C3H8            7.137-10 5.850-10 2.942-10 3.033-11
 C3H8O,1propanol 1.101-14 8.350-15 3.135-15 1.214-16
 C3H8O,2propanol 1.403-14 1.078-14 4.420-15 2.159-16
 C3O2            4.440-11 3.450-11 7.801-12 1.281-13
 C4H2,butadiyne  1.793-12 1.148-12 5.547-14 2.341-17
 C4H4,1,3-cyclo- 1.023-16 6.337-17 3.068-18 1.104-21
 C4H6,butadiene  4.908-11 3.576-11 6.490-12 5.882-14
 C4H6,1butyne    1.392-12 9.652-13 1.253-13 4.758-16
 C4H6,2butyne    1.959-12 1.391-12 2.119-13 1.204-15
 C4H6,cyclo-     4.269-14 2.993-14 4.186-15 1.938-17
 C4H8,1-butene   5.582-12 4.122-12 1.025-12 1.740-14
 C4H8,cis2-buten 2.910-12 2.172-12 5.807-13 1.180-14
 C4H8,tr2-butene 3.276-12 2.446-12 6.557-13 1.348-14
 C4H8,isobutene  4.098-12 3.078-12 8.561-13 1.934-14
 C4H8,cyclo-     1.423-15 1.023-15 2.124-16 2.292-18
 C4H9,n-butyl    2.740-16 1.791-16 2.189-17 5.563-20
 C4H9,i-butyl    1.833-16 1.208-16 1.564-17 4.617-20
 C4H9,s-butyl    1.863-16 1.219-16 1.501-17 3.856-20
 C4H10,n-butane  2.308-13 1.735-13 6.092-14 2.131-15
 C4H10,isobutane 9.044-14 6.855-14 2.549-14 1.034-15
 C5H6,1,3cyclo-  7.733-13 5.534-13 8.897-14 5.884-16
 C5H8,cyclo-     1.357-14 9.693-15 1.922-15 1.845-17
 C5H10,1-pentene 1.428-15 9.692-16 1.705-16 1.006-18
 C6H6            1.346-11 1.016-11 2.345-12 3.889-14
 C6H5OH,phenol   2.085-15 1.490-15 2.999-16 2.797-18
 C7H7,benzyl     1.274-16 7.985-17 5.872-18 4.854-21
 C7H8            3.195-14 2.246-14 4.008-15 2.912-17
 C8H8,styrene    1.390-16 8.819-17 7.880-18 9.798-21
 *H              8.4602-7 7.1512-7 2.0202-7 8.7761-9
 HCO             1.817 -8 1.476 -8 4.004 -9 1.206-10
 HCCO            2.385-12 1.690-12 1.821-13 5.169-16
 *H2             4.5858-1 4.5868-1 4.5093-1 4.3111-1
 HCHO,formaldehy 2.0183-6 1.8119-6 1.0799-6 2.2434-7
 HCOOH           7.4841-8 6.9474-8 6.5674-8 3.6160-8
 H2O             1.4200-2 1.4510-2 2.0736-2 4.0375-2
 *O              9.245-16 6.387-16 5.202-17 8.034-20
 *OH             6.640-10 5.395-10 1.466-10 4.482-12
 C(gr)           1.1336-1 1.1426-1 1.2344-1 1.6263-1

  * THERMODYNAMIC PROPERTIES FITTED TO 20000.K

              THEORETICAL ROCKET PERFORMANCE ASSUMING EQUILIBRIUM

            COMPOSITION DURING EXPANSION FROM FINITE AREA COMBUSTOR

 Pin =   319.1 PSIA
 Ac/At =  2.0000      Pinj/Pinf =  1.053936
 CASE = test___________

             REACTANT                       MOLES         ENERGY      TEMP
                                                         KJ/KG-MOL      K
 FUEL        RP-1                       100.0000000    -24717.700    298.150
 OXIDANT     O2(L)                      100.0000000    -12979.000     90.170

 O/F=    0.87325  %FUEL= 53.383221  R,EQ.RATIO= 3.900000  PHI,EQ.RATIO= 3.900000

                 INJECTOR  COMB END  THROAT     EXIT
 Pinj/P            1.0000   1.1172   1.8608   8.2974
 P, BAR            22.000   19.692   11.823   2.6514
 T, K             1402.88  1386.95  1289.46  1091.35
 RHO, KG/CU M    2.9843 0 2.7025 0 1.7691 0 4.9081-1
 H, KJ/KG        -1133.20 -1175.90 -1531.77 -2427.78
 U, KJ/KG        -1870.39 -1904.55 -2200.07 -2967.99
 G, KJ/KG        -18639.1 -18521.2 -17657.9 -16076.3
 S, KJ/(KG)(K)    12.4785  12.5061  12.5061  12.5061

 M, (1/n)          15.822   15.826   16.042   16.797
 MW, MOL WT        13.850   13.838   13.873   13.866
 (dLV/dLP)t      -1.04272 -1.04297 -1.05333 -1.08041
 (dLV/dLT)p        1.4309   1.4411   1.6140   2.1797
 Cp, KJ/(KG)(K)    4.8556   4.9509   6.2808  11.3707
 GAMMAs            1.2178   1.2157   1.1928   1.1447
 SON VEL,M/SEC      947.5    941.2    892.8    786.4
 MACH NUMBER        0.000    0.310    1.000    2.046

 PERFORMANCE PARAMETERS

 Ae/At                      2.0000   1.0000   2.0000
 CSTAR, M/SEC               1321.5   1321.5   1321.5
 CF                         0.2211   0.6756   1.2176
 Ivac, M/SEC                2785.6   1641.4   1944.8
 Isp, M/SEC                  292.2    892.8   1609.1

 MOLE FRACTIONS

 CH2             8.676-13 5.947-13 4.714-14 6.665-17
 CH3             6.8068-7 5.6381-7 1.7524-7 7.7997-9
 CH2OH           2.314-11 1.798-11 4.555-12 9.563-14
 CH3O            8.391-13 6.292-13 1.259-13 1.463-15
 CH4             2.2367-2 2.1921-2 2.3264-2 2.3010-2
 CH3OH           3.7968-8 3.3704-8 2.3000-8 5.7780-9
 *CO             3.7601-1 3.7476-1 3.6094-1 3.0214-1
 *CO2            5.9271-3 6.2154-3 1.0465-2 2.9988-2
 COOH            9.327-11 7.772-11 3.149-11 2.105-12
 C2H             1.769-15 1.072-15 3.378-17 4.782-21
 C2H2,acetylene  1.1965-6 9.6076-7 2.1847-7 4.7093-9
 C2H2,vinylidene 1.084-12 7.274-13 5.007-14 4.870-17
 CH2CO,ketene    5.5692-7 4.7017-7 1.8563-7 1.3305-8
 O(CH)2O         5.849-13 4.604-13 1.423-13 4.395-15
 C2H3,vinyl      5.981-11 4.273-11 4.956-12 1.721-14
 CH3CO,acetyl    1.297-10 9.994-11 2.391-11 4.374-13
 C2H4            1.1144-5 9.6450-6 4.4679-6 5.1535-7
 C2H4O,ethylen-o 8.658-14 6.624-14 1.682-14 3.322-16
 CH3CHO,ethanal  2.1659-8 1.8546-8 9.9600-9 1.3517-9
 CH3COOH         1.547-10 1.364-10 1.114-10 3.663-11
 OHCH2COOH       9.887-16 7.981-16 4.502-16 4.621-17
 C2H5            9.132-10 7.032-10 1.664-10 3.125-12
 C2H6            2.4640-6 2.2003-6 1.5537-6 4.5584-7
 C2H5OH          4.155-11 3.427-11 1.775-11 1.880-12
 CH3OCH3         9.116-14 7.164-14 2.690-14 1.240-15
 C2O             2.353-14 1.574-14 1.067-15 9.470-19
 C3H3,1-propynl  5.554-16 3.429-16 1.504-17 4.215-21
 C3H3,2-propynl  4.916-11 3.385-11 3.074-12 5.696-15
 C3H4,allene     1.170 -9 8.810-10 1.612-10 1.691-12
 C3H4,propyne    3.453 -9 2.617 -9 5.004-10 5.868-12
 C3H4,cyclo-     5.735-13 3.970-13 4.158-14 1.033-16
 C3H5,allyl      7.045-11 5.159-11 8.752-12 7.036-14
 C3H6,propylene  1.874 -8 1.509 -8 5.348 -9 2.644-10
 C3H6,cyclo-     2.717-11 2.115-11 5.994-12 1.677-13
 C3H6O,propylox  1.327-16 9.510-17 1.933-17 1.843-19
 C3H6O,acetone   2.302-11 1.870-11 8.752-12 7.107-13
 C3H6O,propanal  5.831-12 4.568-12 1.680-12 7.379-14
 C3H7,n-propyl   2.815-13 1.985-13 3.241-14 2.001-16
 C3H7,i-propyl   3.131-13 2.234-13 3.937-14 2.948-16
 C3H8            8.133-10 6.669-10 3.303-10 3.328-11
 C3H8O,1propanol 1.273-14 9.658-15 3.550-15 1.327-16
 C3H8O,2propanol 1.642-14 1.261-14 5.054-15 2.375-16
 C3O2            3.728-11 2.901-11 6.692-12 1.129-13
 C4H2,butadiyne  1.181-12 7.595-13 3.947-14 1.875-17
 C4H6,butadiene  4.508-11 3.292-11 6.096-12 5.716-14
 C4H6,1butyne    1.221-12 8.493-13 1.134-13 4.512-16
 C4H6,2butyne    1.758-12 1.251-12 1.952-13 1.155-15
 C4H6,cyclo-     3.784-14 2.660-14 3.820-15 1.848-17
 C4H8,1-butene   5.778-12 4.273-12 1.065-12 1.816-14
 C4H8,cis2-buten 3.042-12 2.274-12 6.078-13 1.237-14
 C4H8,tr2-butene 3.426-12 2.562-12 6.867-13 1.413-14
 C4H8,isobutene  4.308-12 3.239-12 9.001-13 2.034-14
 C4H8,cyclo-     1.437-15 1.035-15 2.162-16 2.361-18
 C4H9,n-butyl    2.674-16 1.753-16 2.172-17 5.655-20
 C4H9,i-butyl    1.803-16 1.191-16 1.562-17 4.713-20
 C4H9,s-butyl    1.820-16 1.194-16 1.490-17 3.920-20
 C4H10,n-butane  2.703-13 2.033-13 7.019-14 2.395-15
 C4H10,isobutane 1.067-13 8.094-14 2.955-14 1.167-15
 C5H6,1,3cyclo-  6.987-13 5.012-13 8.246-14 5.667-16
 C5H8,cyclo-     1.362-14 9.744-15 1.947-15 1.895-17
 C5H10,1-pentene 1.522-15 1.035-15 1.820-16 1.076-18
 C6H6            1.278-11 9.666-12 2.262-12 3.842-14
 C6H5OH,phenol   2.051-15 1.468-15 2.969-16 2.785-18
 C7H7,benzyl     1.075-16 6.759-17 5.158-18 4.532-21
 C7H8            3.161-14 2.227-14 4.013-15 2.968-17
 C8H8,styrene    1.251-16 7.962-17 7.309-18 9.504-21
 *H              6.8181-7 5.7756-7 1.6918-7 7.7904-9
 HCO             1.539 -8 1.252 -8 3.476 -9 1.084-10
 HCCO            1.780-12 1.265-12 1.427-13 4.351-16
 *H2             4.5534-1 4.5547-1 4.4776-1 4.2847-1
 HCHO,formaldehy 1.9771-6 1.7753-6 1.0567-6 2.1868-7
 HCOOH           8.2408-8 7.6429-8 7.0479-8 3.7101-8
 H2O             1.5673-2 1.5997-2 2.2350-2 4.1897-2
 *O              6.391-16 4.432-16 3.827-17 6.474-20
 *OH             5.623-10 4.576-10 1.273-10 4.032-12
 C(gr)           1.2467-1 1.2563-1 1.3522-1 1.7449-1

  * THERMODYNAMIC PROPERTIES FITTED TO 20000.K

              THEORETICAL ROCKET PERFORMANCE ASSUMING EQUILIBRIUM

            COMPOSITION DURING EXPANSION FROM FINITE AREA COMBUSTOR

 Pin =   319.1 PSIA
 Ac/At =  2.0000      Pinj/Pinf =  1.053772
 CASE = test___________

             REACTANT                       MOLES         ENERGY      TEMP
                                                         KJ/KG-MOL      K
 FUEL        RP-1                       100.0000000    -24717.700    298.150
 OXIDANT     O2(L)                      100.0000000    -12979.000     90.170

 O/F=    0.85142  %FUEL= 54.012696  R,EQ.RATIO= 4.000000  PHI,EQ.RATIO= 4.000000

                 INJECTOR  COMB END  THROAT     EXIT
 Pinj/P            1.0000   1.1168   1.8577   8.2682
 P, BAR            22.000   19.699   11.843   2.6608
 T, K             1388.98  1373.51  1279.85  1086.73
 RHO, KG/CU M    3.0266 0 2.7411 0 1.7931 0 4.9671-1
 H, KJ/KG        -1141.77 -1183.75 -1534.18 -2420.25
 U, KJ/KG        -1868.67 -1902.40 -2194.65 -2955.94
 G, KJ/KG        -18412.9 -18300.2 -17483.5 -15962.9
 S, KJ/(KG)(K)    12.4344  12.4618  12.4618  12.4618

 M, (1/n)          15.888   15.891   16.112   16.867
 MW, MOL WT        13.734   13.722   13.752   13.734
 (dLV/dLP)t      -1.04635 -1.04660 -1.05686 -1.08274
 (dLV/dLT)p        1.4734   1.4842   1.6596   2.2145
 Cp, KJ/(KG)(K)    5.1343   5.2367   6.6017  11.6269
 GAMMAs            1.2120   1.2099   1.1883   1.1431
 SON VEL,M/SEC      938.6    932.5    885.9    782.5
 MACH NUMBER        0.000    0.311    1.000    2.043

 PERFORMANCE PARAMETERS

 Ae/At                      2.0000   1.0000   2.0000
 CSTAR, M/SEC               1314.3   1314.3   1314.3
 CF                         0.2205   0.6741   1.2167
 Ivac, M/SEC                2769.9   1631.4   1934.1
 Isp, M/SEC                  289.8    885.9   1599.0

 MOLE FRACTIONS

 CH2             6.198-13 4.264-13 3.576-14 5.531-17
 CH3             6.0298-7 5.0022-7 1.5876-7 7.3090-9
 CH2OH           2.101-11 1.635-11 4.196-12 8.979-14
 CH3O            7.385-13 5.547-13 1.131-13 1.352-15
 CH4             2.4124-2 2.3636-2 2.4799-2 2.4118-2
 CH3OH           4.0703-8 3.6122-8 2.4308-8 5.9646-9
 *CO             3.6459-1 3.6328-1 3.4899-1 2.9035-1
 *CO2            6.5084-3 6.8140-3 1.1165-2 3.0506-2
 COOH            8.816-11 7.348-11 2.978-11 1.981-12
 C2H             1.080-15 6.579-16 2.250-17 3.628-21
 C2H2,acetylene  9.8101-7 7.8945-7 1.8551-7 4.2139-9
 C2H2,vinylidene 7.601-13 5.122-13 3.741-14 3.999-17
 CH2CO,ketene    5.1678-7 4.3662-7 1.7378-7 1.2589-8
 O(CH)2O         5.532-13 4.358-13 1.349-13 4.158-15
 C2H3,vinyl      4.657-11 3.337-11 4.041-12 1.503-14
 CH3CO,acetyl    1.169-10 9.018-11 2.190-11 4.092-13
 C2H4            1.0786-5 9.3432-6 4.3588-6 5.0897-7
 C2H4O,ethylen-o 8.154-14 6.245-14 1.600-14 3.197-16
 CH3CHO,ethanal  2.2501-8 1.9269-8 1.0261-8 1.3719-9
 CH3COOH         1.787-10 1.574-10 1.248-10 3.899-11
 OHCH2COOH       1.145-15 9.235-16 5.041-16 4.874-17
 C2H5            8.395-10 6.475-10 1.559-10 3.013-12
 C2H6            2.7101-6 2.4201-6 1.6885-6 4.8685-7
 C2H5OH          4.620-11 3.810-11 1.939-11 1.997-12
 CH3OCH3         9.719-14 7.640-14 2.840-14 1.288-15
 C2O             1.612-14 1.082-14 7.773-16 7.531-19
 C3H3,1-propynl  3.809-16 2.362-16 1.106-17 3.433-21
 C3H3,2-propynl  3.707-11 2.561-11 2.442-12 4.888-15
 C3H4,allene     1.003 -9 7.568-10 1.424-10 1.563-12
 C3H4,propyne    2.977 -9 2.261 -9 4.442-10 5.441-12
 C3H4,cyclo-     4.569-13 3.173-13 3.461-14 9.175-17
 C3H5,allyl      6.199-11 4.550-11 7.916-12 6.629-14
 C3H6,propylene  1.883 -8 1.518 -8 5.399 -9 2.688-10
 C3H6,cyclo-     2.651-11 2.067-11 5.909-12 1.678-13
 C3H6O,propylox  1.306-16 9.367-17 1.912-17 1.832-19
 C3H6O,acetone   2.526-11 2.052-11 9.462-12 7.494-13
 C3H6O,propanal  6.200-12 4.859-12 1.771-12 7.651-14
 C3H7,n-propyl   2.651-13 1.874-13 3.109-14 1.972-16
 C3H7,i-propyl   2.978-13 2.129-13 3.807-14 2.920-16
 C3H8            9.184-10 7.532-10 3.681-10 3.637-11
 C3H8O,1propanol 1.456-14 1.104-14 3.984-15 1.443-16
 C3H8O,2propanol 1.898-14 1.459-14 5.724-15 2.601-16
 C3O2            3.156-11 2.459-11 5.774-12 9.961-14
 C4H2,butadiyne  7.980-13 5.156-13 2.863-14 1.510-17
 C4H6,butadiene  4.161-11 3.044-11 5.744-12 5.552-14
 C4H6,1butyne    1.080-12 7.531-13 1.032-13 4.279-16
 C4H6,2butyne    1.587-12 1.132-12 1.805-13 1.107-15
 C4H6,cyclo-     3.379-14 2.381-14 3.503-15 1.763-17
 C4H8,1-butene   5.964-12 4.416-12 1.102-12 1.889-14
 C4H8,cis2-buten 3.169-12 2.372-12 6.341-13 1.293-14
 C4H8,tr2-butene 3.570-12 2.672-12 7.166-13 1.478-14
 C4H8,isobutene  4.511-12 3.395-12 9.430-13 2.133-14
 C4H8,cyclo-     1.449-15 1.045-15 2.198-16 2.427-18
 C4H9,n-butyl    2.613-16 1.716-16 2.154-17 5.734-20
 C4H9,i-butyl    1.774-16 1.175-16 1.559-17 4.800-20
 C4H9,s-butyl    1.780-16 1.170-16 1.479-17 3.976-20
 C4H10,n-butane  3.130-13 2.356-13 8.015-14 2.677-15
 C4H10,isobutane 1.245-13 9.449-14 3.395-14 1.310-15
 C5H6,1,3cyclo-  6.350-13 4.565-13 7.671-14 5.457-16
 C5H8,cyclo-     1.366-14 9.785-15 1.970-15 1.942-17
 C5H10,1-pentene 1.614-15 1.099-15 1.933-16 1.145-18
 C6H6            1.216-11 9.215-12 2.185-12 3.793-14
 C6H5OH,phenol   2.016-15 1.445-15 2.934-16 2.767-18
 C7H8            3.127-14 2.206-14 4.014-15 3.017-17
 C8H8,styrene    1.133-16 7.230-17 6.804-18 9.210-21
 *H              5.5694-7 4.7275-7 1.4307-7 6.9376-9
 HCO             1.315 -8 1.071 -8 3.037 -9 9.767-11
 HCCO            1.352-12 9.636-13 1.133-13 3.675-16
 *H2             4.5207-1 4.5223-1 4.4461-1 4.2586-1
 HCHO,formaldehy 1.9358-6 1.7385-6 1.0336-6 2.1308-7
 HCOOH           8.9917-8 8.3318-8 7.5113-8 3.7965-8
 H2O             1.7158-2 1.7495-2 2.3947-2 4.3387-2
 *O              4.518-16 3.143-16 2.861-17 5.244-20
 *OH             4.805-10 3.916-10 1.113-10 3.635-12
 C(gr)           1.3553-1 1.3653-1 1.4649-1 1.8578-1

  * THERMODYNAMIC PROPERTIES FITTED TO 20000.K