

         NASA-GLENN CHEMICAL EQUILIBRIUM PROGRAM CEA2, FEBRUARY 5, 2004
                   BY  BONNIE MCBRIDE AND SANFORD GORDON
      REFS: NASA RP-1311, PART I, 1994 AND NASA RP-1311, PART II, 1996

 *******************************************************************************

  
 ### CEA analysis performed on Mon 29-Aug-2022 03:14:12
  
 # Problem Type: "Rocket" (Finite Area Combustor)
  
 prob case=test___________9755 ro equilibrium    fac
  
 !Contraction Ratio:
 ac/at=2
  
 # Pressure (1 value):
 p,atm= 100
 # Supersonic Area Ratio (1 value):
 supar= 8
  
 # Equivalence based on Fuel/Oxid. wt ratio (Eq 9.19*) (10 values):
 phi= 3.1, 3.2, 3.3, 3.4, 3.5, 3.6, 3.7, 3.8, 3.9, 4
  
 # You selected the following fuels and oxidizers:
 reac
 fuel RP-1              wt%=100.0000
 oxid O2(L)             wt%=100.0000
  
 # You selected these options for output:
 # short version of output
 output short
 # Proportions of any products will be expressed as Mole Fractions.
 # Heat will be expressed as siunits
 output siunits
 # Trace variable:
 output trace=1e-16
  
 # Input prepared by this script:/var/www/sites/cearun.grc.nasa.gov/cgi-bin/CEARU
 N/prepareInputFile.cgi
  
 ### IMPORTANT:  The following line is the end of your CEA input file!
 end

              THEORETICAL ROCKET PERFORMANCE ASSUMING EQUILIBRIUM

            COMPOSITION DURING EXPANSION FROM FINITE AREA COMBUSTOR

 Pin =  1469.6 PSIA
 Ac/At =  2.0000      Pinj/Pinf =  1.055163
 CASE = test___________

             REACTANT                    WT FRACTION      ENERGY      TEMP
                                          (SEE NOTE)     KJ/KG-MOL      K  
 FUEL        RP-1                         1.0000000    -24717.700    298.150
 OXIDANT     O2(L)                        1.0000000    -12979.000     90.170

 O/F=    1.09860  %FUEL= 47.650769  R,EQ.RATIO= 3.100000  PHI,EQ.RATIO= 3.100000

                 INJECTOR  COMB END  THROAT     EXIT
 Pinj/P            1.0000   1.1200   1.8873   56.420
 P, BAR            101.33   90.468   53.688   1.7959
 T, K             1662.52  1640.51  1499.15  1027.47
 RHO, KG/CU M    1.1622 1 1.0514 1 6.9096 0 3.7583-1
 H, KJ/KG        -1055.06 -1106.70 -1533.26 -3580.56
 U, KJ/KG        -1926.92 -1967.16 -2310.27 -4058.42
 G, KJ/KG        -21066.1 -20899.2 -19620.2 -15976.8
 S, KJ/(KG)(K)    12.0366  12.0648  12.0648  12.0648

 M, (1/n)          15.855   15.852   16.042   17.878
 MW, MOL WT        15.658   15.638   15.695   15.568
 (dLV/dLP)t      -1.03827 -1.03825 -1.04761 -1.10016
 (dLV/dLT)p        1.3097   1.3158   1.4534   2.6227
 Cp, KJ/(KG)(K)    3.7173   3.7675   4.6560  15.0033
 GAMMAs            1.2558   1.2544   1.2308   1.1275
 SON VEL,M/SEC     1046.4   1038.9    977.9    734.0
 MACH NUMBER        0.000    0.309    1.000    3.062

 PERFORMANCE PARAMETERS

 Ae/At                      2.0000   1.0000   8.0000
 CSTAR, M/SEC               1421.1   1421.1   1421.1
 CF                         0.2261   0.6882   1.5815
 Ivac, M/SEC                2999.0   1772.5   2460.1
 Isp, M/SEC                  321.3    978.0   2247.4

 MOLE FRACTIONS

 *CH             7.804-15 4.643-15 9.794-17 1.441-25
 CH2             1.456-10 1.006-10 6.998-12 4.462-18
 CH3             8.3562-6 6.9401-6 2.0502-6 2.2154-9
 CH2OH           7.800-10 6.053-10 1.466-10 2.579-14
 CH3O            4.668-11 3.490-11 6.512-12 3.125-16
 CH4             2.6994-2 2.6369-2 2.8342-2 2.4134-2
 CH3OH           2.0232-7 1.7853-7 1.2322-7 4.4687-9
 *CO             4.8965-1 4.8842-1 4.7667-1 3.1172-1
 *CO2            4.5134-3 4.7030-3 8.3504-3 6.5712-2
 COOH            1.549 -9 1.284 -9 5.110-10 1.059-12
 C2H             1.646-12 1.009-12 2.634-14 1.202-22
 C2H2,acetylene  2.340 -5 1.888 -5 3.985 -6 9.503-10
 C2H2,vinylidene 2.403-10 1.627-10 9.818-12 2.794-18
 CH2CO,ketene    6.3809-6 5.3815-6 2.0674-6 5.6139-9
 O(CH)2O         2.025-11 1.584-11 4.740-12 1.706-15
 HO(CO)2OH       5.125-16 4.193-16 3.061-16 2.987-18
 C2H3,vinyl      5.471 -9 3.929 -9 4.117-10 1.739-15
 CH3CO,acetyl    4.968 -9 3.818 -9 8.645-10 1.119-13
 C2H4            7.2300-5 6.2564-5 2.8255-5 2.2612-7
 C2H4O,ethylen-o 3.509-12 2.672-12 6.461-13 9.214-17
 CH3CHO,ethanal  1.886 -7 1.606 -7 8.600 -8 8.157-10
 CH3COOH         1.059 -9 9.217-10 7.696-10 4.102-11
 OHCH2COOH       2.639-14 2.091-14 1.193-14 4.180-17
 C2H5            2.782 -8 2.141 -8 4.787 -9 6.910-13
 C2H6            9.6355-6 8.5605-6 6.0737-6 3.2249-7
 C2H5OH          5.561-10 4.543-10 2.357-10 1.135-12
 CH3OCH3         2.351-12 1.831-12 6.772-13 5.346-16
 C2O             6.938-12 4.671-12 2.772-13 6.121-20
 C3H3,1-propynl  3.677-13 2.289-13 8.637-15 1.534-22
 C3H3,2-propynl  7.419 -9 5.139 -9 4.157-10 4.468-16
 C3H4,allene     5.065 -8 3.820 -8 6.475 -9 2.814-13
 C3H4,propyne    1.363 -7 1.035 -7 1.840 -8 1.021-12
 C3H4,cyclo-     7.759-11 5.388-11 5.070-12 9.600-18
 C3H5,allyl      4.273 -9 3.128 -9 4.895-10 1.108-14
 C3H6,propylene  2.991 -7 2.400 -7 8.238 -8 9.100-11
 C3H6,cyclo-     6.901-10 5.352-10 1.444-10 4.594-14
 C3H6O,propylox  1.207-14 8.579-15 1.653-15 4.209-20
 C3H6O,acetone   3.774-10 3.038-10 1.420-10 3.847-13
 C3H6O,propanal  1.573-10 1.221-10 4.411-11 3.124-14
 C3H7,n-propyl   2.609-11 1.833-11 2.792-12 3.121-17
 C3H7,i-propyl   2.469-11 1.756-11 2.907-12 4.958-17
 C3H8            9.363 -9 7.613 -9 3.741 -9 1.691-11
 C3H8O,1propanol 4.878-13 3.655-13 1.333-13 5.806-17
 C3H8O,2propanol 5.303-13 4.022-13 1.601-13 1.143-16
 C3O2            1.638 -9 1.273 -9 2.785-10 3.095-14
 C4H2,butadiyne  4.681-10 3.038-10 1.357-11 8.076-19
 C4H4,1,3-cyclo- 4.178-14 2.613-14 1.165-15 4.113-23
 C4H6,butadiene  2.741 -9 1.995 -9 3.428-10 1.009-14
 C4H6,1butyne    1.432-10 9.943-11 1.219-11 5.605-17
 C4H6,2butyne    1.494-10 1.062-10 1.538-11 1.681-16
 C4H6,cyclo-     3.853-12 2.702-12 3.559-13 2.491-18
 C4H8,1-butene   2.701-10 1.984-10 4.731-11 4.493-15
 C4H8,cis2-buten 1.227-10 9.115-11 2.346-11 3.281-15
 C4H8,tr2-butene 1.378-10 1.024-10 2.637-11 3.772-15
 C4H8,isobutene  1.609-10 1.202-10 3.217-11 5.637-15
 C4H8,cyclo-     9.701-14 6.937-14 1.366-14 4.888-19
 C4H9,n-butyl    6.211-14 4.042-14 4.632-15 6.880-21
 C4H9,i-butyl    3.738-14 2.453-14 2.980-15 6.093-21
 C4H9,s-butyl    4.149-14 2.705-14 3.131-15 4.778-21
 C4H9,t-butyl    1.222-14 8.167-15 1.133-15 4.430-21
 C4H10,n-butane  9.289-12 6.905-12 2.333-12 8.689-16
 C4H10,isobutane 3.278-12 2.457-12 8.795-13 4.495-16
 C5H6,1,3cyclo-  5.386-11 3.855-11 5.862-12 8.804-17
 C5H8,cyclo-     1.008-12 7.161-13 1.345-13 3.747-18
 C5H10,1-pentene 2.049-13 1.380-13 2.308-14 1.914-19
 C5H10,cyclo-    5.367-15 3.824-15 9.562-16 7.429-20
 C5H12,n-pentane 7.898-15 5.363-15 1.240-15 3.837-20
 C5H12,i-pentane 7.711-15 5.241-15 1.227-15 4.452-20
 CH3C(CH3)2CH3   4.527-16 3.071-16 7.190-17 3.284-21
 C6H2            9.983-15 5.217-15 4.971-17 7.833-28
 C6H5,phenyl     4.170-14 2.591-14 1.260-15 5.441-23
 C6H5O,phenoxy   1.141-15 7.438-16 6.804-17 4.244-23
 C6H6            4.775-10 3.602-10 7.967-11 8.594-15
 C6H5OH,phenol   1.879-13 1.335-13 2.565-14 6.320-19
 C6H10,cyclo-    2.760-16 1.819-16 2.612-17 1.114-22
 C6H12,1-hexene  1.544-16 9.540-17 1.118-17 8.071-24
 C7H7,benzyl     4.762-14 2.987-14 2.024-15 3.226-22
 C7H8            2.864-12 2.005-12 3.397-13 5.237-18
 C7H8O,cresol-mx 9.026-16 5.957-16 8.805-17 3.224-22
 C8H8,styrene    4.502-14 2.853-14 2.370-15 8.314-22
 C8H10,ethylbenz 2.954-15 1.889-15 2.185-16 2.676-22
 C10H8,naphthale 1.990-15 1.259-15 1.031-16 3.406-23
 *H              6.8381-6 5.8142-6 1.5704-6 2.0519-9
 HCO             3.031 -7 2.470 -7 6.523 -8 3.107-11
 HCCO            2.208-10 1.575-10 1.608-11 4.868-17
 *H2             4.5265-1 4.5307-1 4.4480-1 4.0301-1
 HCHO,formaldehy 9.8084-6 8.7886-6 5.2008-6 1.4166-7
 HCOOH           3.0980-7 2.8444-7 2.6749-7 4.5509-8
 H2O             1.3616-2 1.3842-2 2.0139-2 6.6224-2
 H2O2            2.707-15 1.972-15 3.552-16 8.428-21
 *O              1.174-13 8.173-14 6.176-15 5.470-21
 *OH             1.115 -8 9.077 -9 2.386 -9 1.167-12
 *O2             1.596-15 1.132-15 1.303-16 4.911-22
 C(gr)           1.2434-2 1.3481-2 2.1643-2 1.2920-1

  * THERMODYNAMIC PROPERTIES FITTED TO 20000.K

 NOTE. WEIGHT FRACTION OF FUEL IN TOTAL FUELS AND OF OXIDANT IN TOTAL OXIDANTS

              THEORETICAL ROCKET PERFORMANCE ASSUMING EQUILIBRIUM

            COMPOSITION DURING EXPANSION FROM FINITE AREA COMBUSTOR

 Pin =  1469.6 PSIA
 Ac/At =  2.0000      Pinj/Pinf =  1.054925
 CASE = test___________

             REACTANT                    WT FRACTION      ENERGY      TEMP
                                          (SEE NOTE)     KJ/KG-MOL      K  
 FUEL        RP-1                         1.0000000    -24717.700    298.150
 OXIDANT     O2(L)                        1.0000000    -12979.000     90.170

 O/F=    1.06427  %FUEL= 48.443259  R,EQ.RATIO= 3.200000  PHI,EQ.RATIO= 3.200000

                 INJECTOR  COMB END  THROAT     EXIT
 Pinj/P            1.0000   1.1195   1.8824   56.036
 P, BAR            101.33   90.512   53.828   1.8082
 T, K             1638.57  1617.35  1483.02  1023.87
 RHO, KG/CU M    1.1846 1 1.0719 1 7.0380 0 3.8135-1
 H, KJ/KG        -1065.87 -1116.31 -1533.84 -3556.41
 U, KJ/KG        -1921.23 -1960.74 -2298.66 -4030.56
 G, KJ/KG        -20715.0 -20556.1 -19359.1 -15862.8
 S, KJ/(KG)(K)    11.9916  12.0196  12.0196  12.0196

 M, (1/n)          15.928   15.925   16.122   17.954
 MW, MOL WT        15.477   15.457   15.506   15.348
 (dLV/dLP)t      -1.04229 -1.04229 -1.05177 -1.10146
 (dLV/dLT)p        1.3492   1.3561   1.4998   2.6396
 Cp, KJ/(KG)(K)    3.9420   3.9995   4.9446  15.0894
 GAMMAs            1.2481   1.2465   1.2237   1.1266
 SON VEL,M/SEC     1033.2   1026.0    967.4    730.9
 MACH NUMBER        0.000    0.310    1.000    3.054

 PERFORMANCE PARAMETERS

 Ae/At                      2.0000   1.0000   8.0000
 CSTAR, M/SEC               1410.6   1410.6   1410.6
 CF                         0.2252   0.6858   1.5821
 Ivac, M/SEC                2976.3   1758.0   2444.3
 Isp, M/SEC                  317.6    967.4   2231.8

 MOLE FRACTIONS

 *CH             4.113-15 2.456-15 5.748-17 1.109-25
 CH2             9.627-11 6.667-11 4.962-12 3.780-18
 CH3             7.2005-6 5.9880-6 1.8131-6 2.0976-9
 CH2OH           6.949-10 5.401-10 1.330-10 2.432-14
 CH3O            3.994-11 2.992-11 5.722-12 2.906-16
 CH4             2.9595-2 2.8917-2 3.0675-2 2.5327-2
 CH3OH           2.2102-7 1.9512-7 1.3268-7 4.6005-9
 *CO             4.7327-1 4.7195-1 4.5934-1 2.9622-1
 *CO2            5.0931-3 5.3025-3 9.1347-3 6.5284-2
 COOH            1.453 -9 1.206 -9 4.810-10 9.866-13
 C2H             8.962-13 5.514-13 1.588-14 9.365-23
 C2H2,acetylene  1.833 -5 1.481 -5 3.250 -6 8.602-10
 C2H2,vinylidene 1.555-10 1.056-10 6.835-12 2.345-18
 CH2CO,ketene    5.8381-6 4.9280-6 1.9136-6 5.3078-9
 O(CH)2O         1.900-11 1.488-11 4.475-12 1.604-15
 HO(CO)2OH       6.258-16 5.120-16 3.583-16 3.011-18
 C2H3,vinyl      4.024 -9 2.897 -9 3.194-10 1.547-15
 CH3CO,acetyl    4.379 -9 3.371 -9 7.782-10 1.052-13
 C2H4            6.9457-5 6.0161-5 2.7403-5 2.2518-7
 C2H4O,ethylen-o 3.264-12 2.489-12 6.096-13 8.919-17
 CH3CHO,ethanal  1.982 -7 1.689 -7 8.969 -8 8.274-10
 CH3COOH         1.269 -9 1.104 -9 8.938-10 4.315-11
 OHCH2COOH       3.177-14 2.519-14 1.389-14 4.337-17
 C2H5            2.508 -8 1.934 -8 4.416 -9 6.766-13
 C2H6            1.0827-5 9.6262-6 6.7378-6 3.4701-7
 C2H5OH          6.348-10 5.191-10 2.645-10 1.209-12
 CH3OCH3         2.548-12 1.988-12 7.282-13 5.578-16
 C2O             4.370-12 2.950-12 1.876-13 4.924-20
 C3H3,1-propynl  2.314-13 1.445-13 5.890-15 1.284-22
 C3H3,2-propynl  5.245 -9 3.642 -9 3.122-10 3.916-16
 C3H4,allene     4.188 -8 3.165 -8 5.550 -9 2.643-13
 C3H4,propyne    1.135 -7 8.637 -8 1.586 -8 9.617-13
 C3H4,cyclo-     5.864-11 4.082-11 4.034-12 8.708-18
 C3H5,allyl      3.647 -9 2.675 -9 4.318-10 1.063-14
 C3H6,propylene  3.008 -7 2.417 -7 8.339 -8 9.377-11
 C3H6,cyclo-     6.687-10 5.195-10 1.418-10 4.669-14
 C3H6O,propylox  1.184-14 8.432-15 1.638-15 4.228-20
 C3H6O,acetone   4.240-10 3.417-10 1.573-10 4.070-13
 C3H6O,propanal  1.698-10 1.320-10 4.729-11 3.256-14
 C3H7,n-propyl   2.421-11 1.705-11 2.651-12 3.142-17
 C3H7,i-propyl   2.321-11 1.654-11 2.790-12 5.013-17
 C3H8            1.086 -8 8.840 -9 4.281 -9 1.872-11
 C3H8O,1propanol 5.760-13 4.322-13 1.546-13 6.367-17
 C3H8O,2propanol 6.345-13 4.819-13 1.878-13 1.261-16
 C3O2            1.342 -9 1.044 -9 2.339-10 2.713-14
 C4H2,butadiyne  2.892-10 1.883-10 9.094-12 6.662-19
 C4H4,1,3-cyclo- 2.817-14 1.767-14 8.436-16 3.568-23
 C4H6,butadiene  2.478 -9 1.808 -9 3.180-10 9.991-15
 C4H6,1butyne    1.230-10 8.564-11 1.084-11 5.432-17
 C4H6,2butyne    1.316-10 9.381-11 1.396-11 1.645-16
 C4H6,cyclo-     3.346-12 2.352-12 3.193-13 2.426-18
 C4H8,1-butene   2.804-10 2.064-10 4.941-11 4.766-15
 C4H8,cis2-buten 1.289-10 9.594-11 2.474-11 3.494-15
 C4H8,tr2-butene 1.448-10 1.077-10 2.782-11 4.019-15
 C4H8,isobutene  1.701-10 1.273-10 3.410-11 6.019-15
 C4H8,cyclo-     9.779-14 7.009-14 1.393-14 5.129-19
 C4H9,n-butyl    6.023-14 3.931-14 4.585-15 7.165-21
 C4H9,i-butyl    3.658-14 2.407-14 2.971-15 6.368-21
 C4H9,s-butyl    4.031-14 2.635-14 3.103-15 4.976-21
 C4H9,t-butyl    1.220-14 8.179-15 1.149-15 4.661-21
 C4H10,n-butane  1.110-11 8.270-12 2.752-12 9.901-16
 C4H10,isobutane 3.953-12 2.968-12 1.045-12 5.140-16
 C5H6,1,3cyclo-  4.782-11 3.430-11 5.356-12 8.648-17
 C5H8,cyclo-     1.009-12 7.183-13 1.364-13 3.920-18
 C5H10,1-pentene 2.200-13 1.486-13 2.490-14 2.089-19
 C5H10,cyclo-    6.125-15 4.374-15 1.086-15 8.320-20
 C5H12,n-pentane 9.721-15 6.617-15 1.507-15 4.500-20
 C5H12,i-pentane 9.501-15 6.475-15 1.494-15 5.233-20
 CH3C(CH3)2CH3   5.567-16 3.789-16 8.769-17 3.875-21
 C6H2            4.870-15 2.557-15 2.742-17 5.893-28
 C6H5,phenyl     2.977-14 1.856-14 9.589-16 4.866-23
 C6H5O,phenoxy   9.554-16 6.248-16 5.903-17 3.976-23
 C6H6            4.490-10 3.393-10 7.630-11 8.629-15
 C6H5OH,phenol   1.843-13 1.312-13 2.540-14 6.346-19
 C6H10,cyclo-    2.893-16 1.912-16 2.767-17 1.209-22
 C6H12,1-hexene  1.715-16 1.063-16 1.246-17 9.068-24
 C7H7,benzyl     3.903-14 2.456-14 1.736-15 3.098-22
 C7H8            2.822-12 1.981-12 3.399-13 5.443-18
 C7H8O,cresol-mx 9.282-16 6.141-16 9.114-17 3.352-22
 C8H8,styrene    3.978-14 2.528-14 2.167-15 8.284-22
 C8H10,ethylbenz 2.997-15 1.923-15 2.251-16 2.860-22
 C10H8,naphthale 1.755-15 1.113-15 9.413-17 3.391-23
 *H              5.3187-6 4.5289-6 1.2720-6 1.8423-9
 HCO             2.506 -7 2.045 -7 5.540 -8 2.801-11
 HCCO            1.579-10 1.129-10 1.212-11 4.148-17
 *H2             4.4837-1 4.4882-1 4.4053-1 4.0023-1
 HCHO,formaldehy 9.5864-6 8.5935-6 5.0837-6 1.3743-7
 HCOOH           3.4615-7 3.1784-7 2.9189-7 4.5845-8
 H2O             1.5270-2 1.5516-2 2.2052-2 6.7789-2
 H2O2            2.350-15 1.715-15 3.145-16 7.684-21
 *O              7.667-14 5.351-14 4.313-15 4.472-21
 *OH             9.208 -9 7.507 -9 2.026 -9 1.053-12
 *O2             1.185-15 8.424-16 1.009-16 4.147-22
 C(gr)           2.8277-2 2.9391-2 3.8223-2 1.4515-1

  * THERMODYNAMIC PROPERTIES FITTED TO 20000.K

 NOTE. WEIGHT FRACTION OF FUEL IN TOTAL FUELS AND OF OXIDANT IN TOTAL OXIDANTS

              THEORETICAL ROCKET PERFORMANCE ASSUMING EQUILIBRIUM

            COMPOSITION DURING EXPANSION FROM FINITE AREA COMBUSTOR

 Pin =  1469.6 PSIA
 Ac/At =  2.0000      Pinj/Pinf =  1.054708
 CASE = test___________

             REACTANT                    WT FRACTION      ENERGY      TEMP
                                          (SEE NOTE)     KJ/KG-MOL      K  
 FUEL        RP-1                         1.0000000    -24717.700    298.150
 OXIDANT     O2(L)                        1.0000000    -12979.000     90.170

 O/F=    1.03202  %FUEL= 49.212112  R,EQ.RATIO= 3.300000  PHI,EQ.RATIO= 3.300000

                 INJECTOR  COMB END  THROAT     EXIT
 Pinj/P            1.0000   1.1190   1.8779   55.688
 P, BAR            101.33   90.552   53.956   1.8195
 T, K             1616.81  1596.30  1468.24  1020.30
 RHO, KG/CU M    1.2063 1 1.0917 1 7.1623 0 3.8673-1
 H, KJ/KG        -1076.34 -1125.69 -1534.86 -3533.72
 U, KJ/KG        -1916.32 -1955.16 -2288.20 -4004.22
 G, KJ/KG        -20392.5 -20241.0 -19116.8 -15751.6
 S, KJ/(KG)(K)    11.9471  11.9748  11.9748  11.9748

 M, (1/n)          16.004   16.001   16.205   18.031
 MW, MOL WT        15.311   15.289   15.331   15.143
 (dLV/dLP)t      -1.04632 -1.04634 -1.05586 -1.10267
 (dLV/dLT)p        1.3895   1.3971   1.5459   2.6549
 Cp, KJ/(KG)(K)    4.1730   4.2376   5.2319  15.1596
 GAMMAs            1.2408   1.2392   1.2173   1.1258
 SON VEL,M/SEC     1020.9   1013.8    957.6    727.8
 MACH NUMBER        0.000    0.310    1.000    3.046

 PERFORMANCE PARAMETERS

 Ae/At                      2.0000   1.0000   8.0000
 CSTAR, M/SEC               1400.7   1400.7   1400.7
 CF                         0.2243   0.6837   1.5827
 Ivac, M/SEC                2954.6   1744.3   2429.2
 Isp, M/SEC                  314.1    957.6   2216.9

 MOLE FRACTIONS

 *CH             2.259-15 1.355-15 3.488-17 8.547-26
 CH2             6.534-11 4.537-11 3.593-12 3.204-18
 CH3             6.2587-6 5.2117-6 1.6147-6 1.9849-9
 CH2OH           6.225-10 4.845-10 1.212-10 2.291-14
 CH3O            3.445-11 2.585-11 5.058-12 2.700-16
 CH4             3.2216-2 3.1482-2 3.3002-2 2.6539-2
 CH3OH           2.3951-7 2.1152-7 1.4186-7 4.7255-9
 *CO             4.5766-1 4.5626-1 4.4287-1 2.8167-1
 *CO2            5.6864-3 5.9144-3 9.9048-3 6.4845-2
 COOH            1.365 -9 1.133 -9 4.531-10 9.187-13
 C2H             5.075-13 3.134-13 9.881-15 7.309-23
 C2H2,acetylene  1.457 -5 1.180 -5 2.684 -6 7.789-10
 C2H2,vinylidene 1.034-10 7.043-11 4.866-12 1.969-18
 CH2CO,ketene    5.3621-6 4.5300-6 1.7763-6 5.0152-9
 O(CH)2O         1.785-11 1.399-11 4.227-12 1.505-15
 HO(CO)2OH       7.503-16 6.139-16 4.127-16 3.026-18
 C2H3,vinyl      3.016 -9 2.177 -9 2.517-10 1.376-15
 CH3CO,acetyl    3.884 -9 2.994 -9 7.038-10 9.875-14
 C2H4            6.6819-5 5.7932-5 2.6602-5 2.2393-7
 C2H4O,ethylen-o 3.044-12 2.325-12 5.761-13 8.615-17
 CH3CHO,ethanal  2.071 -7 1.766 -7 9.307 -8 8.373-10
 CH3COOH         1.497 -9 1.303 -9 1.025 -9 4.525-11
 OHCH2COOH       3.763-14 2.985-14 1.596-14 4.484-17
 C2H5            2.273 -8 1.756 -8 4.090 -9 6.612-13
 C2H6            1.2056-5 1.0725-5 7.4162-6 3.7229-7
 C2H5OH          7.166-10 5.864-10 2.940-10 1.282-12
 CH3OCH3         2.741-12 2.140-12 7.775-13 5.800-16
 C2O             2.832-12 1.917-12 1.300-13 3.966-20
 C3H3,1-propynl  1.499-13 9.395-14 4.112-15 1.074-22
 C3H3,2-propynl  3.789 -9 2.638 -9 2.386-10 3.430-16
 C3H4,allene     3.503 -8 2.652 -8 4.799 -9 2.480-13
 C3H4,propyne    9.560 -8 7.287 -8 1.380 -8 9.048-13
 C3H4,cyclo-     4.509-11 3.147-11 3.254-12 7.891-18
 C3H5,allyl      3.140 -9 2.309 -9 3.835-10 1.018-14
 C3H6,propylene  3.019 -7 2.429 -7 8.424 -8 9.634-11
 C3H6,cyclo-     6.483-10 5.046-10 1.393-10 4.733-14
 C3H6O,propylox  1.160-14 8.277-15 1.620-15 4.232-20
 C3H6O,acetone   4.716-10 3.804-10 1.726-10 4.290-13
 C3H6O,propanal  1.820-10 1.417-10 5.036-11 3.382-14
 C3H7,n-propyl   2.254-11 1.591-11 2.522-12 3.152-17
 C3H7,i-propyl   2.187-11 1.562-11 2.680-12 5.053-17
 C3H8            1.245 -8 1.015 -8 4.850 -9 2.064-11
 C3H8O,1propanol 6.708-13 5.040-13 1.771-13 6.947-17
 C3H8O,2propanol 7.482-13 5.690-13 2.174-13 1.384-16
 C3O2            1.111 -9 8.655-10 1.981-10 2.379-14
 C4H2,butadiyne  1.842-10 1.203-10 6.249-12 5.499-19
 C4H4,1,3-cyclo- 1.947-14 1.226-14 6.230-16 3.093-23
 C4H6,butadiene  2.253 -9 1.647 -9 2.962-10 9.864-15
 C4H6,1butyne    1.066-10 7.438-11 9.694-12 5.251-17
 C4H6,2butyne    1.168-10 8.343-11 1.273-11 1.605-16
 C4H6,cyclo-     2.928-12 2.064-12 2.882-13 2.356-18
 C4H8,1-butene   2.899-10 2.138-10 5.139-11 5.033-15
 C4H8,cis2-buten 1.348-10 1.005-10 2.596-11 3.706-15
 C4H8,tr2-butene 1.514-10 1.128-10 2.920-11 4.263-15
 C4H8,isobutene  1.788-10 1.340-10 3.595-11 6.400-15
 C4H8,cyclo-     9.836-14 7.065-14 1.417-14 5.360-19
 C4H9,n-butyl    5.843-14 3.824-14 4.535-15 7.425-21
 C4H9,i-butyl    3.577-14 2.360-14 2.959-15 6.623-21
 C4H9,s-butyl    3.916-14 2.567-14 3.072-15 5.157-21
 C4H9,t-butyl    1.216-14 8.175-15 1.162-15 4.880-21
 C4H10,n-butane  1.309-11 9.767-12 3.206-12 1.122-15
 C4H10,isobutane 4.699-12 3.534-12 1.226-12 5.844-16
 C5H6,1,3cyclo-  4.272-11 3.071-11 4.916-12 8.473-17
 C5H8,cyclo-     1.008-12 7.192-13 1.379-13 4.085-18
 C5H10,1-pentene 2.347-13 1.589-13 2.669-14 2.268-19
 C5H10,cyclo-    6.916-15 4.949-15 1.222-15 9.263-20
 C5H12,n-pentane 1.178-14 8.036-15 1.806-15 5.239-20
 C5H12,i-pentane 1.152-14 7.874-15 1.793-15 6.107-20
 CH3C(CH3)2CH3   6.744-16 4.605-16 1.054-16 4.539-21
 C6H2            2.488-15 1.313-15 1.570-17 4.437-28
 C6H5,phenyl     2.170-14 1.357-14 7.418-16 4.344-23
 C6H5O,phenoxy   8.078-16 5.296-16 5.155-17 3.716-23
 C6H6            4.232-10 3.204-10 7.318-11 8.640-15
 C6H5OH,phenol   1.805-13 1.287-13 2.510-14 6.349-19
 C6H10,cyclo-    3.017-16 1.999-16 2.916-17 1.303-22
 C6H12,1-hexene  1.887-16 1.172-16 1.376-17 1.012-23
 C7H7,benzyl     3.236-14 2.043-14 1.502-15 2.966-22
 C7H8            2.779-12 1.955-12 3.395-13 5.633-18
 C7H8O,cresol-mx 9.501-16 6.301-16 9.387-17 3.469-22
 C8H8,styrene    3.538-14 2.255-14 1.990-15 8.220-22
 C8H10,ethylbenz 3.032-15 1.951-15 2.311-16 3.040-22
 C10H8,naphthale 1.557-15 9.909-16 8.631-17 3.363-23
 *H              4.2034-6 3.5847-6 1.0438-6 1.6557-9
 HCO             2.094 -7 1.711 -7 4.745 -8 2.526-11
 HCCO            1.152-10 8.254-11 9.278-12 3.535-17
 *H2             4.4402-1 4.4451-1 4.3627-1 3.9747-1
 HCHO,formaldehy 9.3648-6 8.3982-6 4.9664-6 1.3323-7
 HCOOH           3.8285-7 3.5151-7 3.1571-7 4.6111-8
 H2O             1.6963-2 1.7227-2 2.3958-2 6.9330-2
 H2O2            2.053-15 1.500-15 2.797-16 6.996-21
 *O              5.141-14 3.597-14 3.076-15 3.661-21
 *OH             7.688 -9 6.276 -9 1.735 -9 9.497-13
 *O2             8.946-16 6.373-16 7.924-17 3.502-22
 C(gr)           4.3328-2 4.4506-2 5.3947-2 1.6015-1

  * THERMODYNAMIC PROPERTIES FITTED TO 20000.K

 NOTE. WEIGHT FRACTION OF FUEL IN TOTAL FUELS AND OF OXIDANT IN TOTAL OXIDANTS

              THEORETICAL ROCKET PERFORMANCE ASSUMING EQUILIBRIUM

            COMPOSITION DURING EXPANSION FROM FINITE AREA COMBUSTOR

 Pin =  1469.6 PSIA
 Ac/At =  2.0000      Pinj/Pinf =  1.054506
 CASE = test___________

             REACTANT                    WT FRACTION      ENERGY      TEMP
                                          (SEE NOTE)     KJ/KG-MOL      K  
 FUEL        RP-1                         1.0000000    -24717.700    298.150
 OXIDANT     O2(L)                        1.0000000    -12979.000     90.170

 O/F=    1.00167  %FUEL= 49.958371  R,EQ.RATIO= 3.400000  PHI,EQ.RATIO= 3.400000

                 INJECTOR  COMB END  THROAT     EXIT
 Pinj/P            1.0000   1.1185   1.8739   55.369
 P, BAR            101.33   90.589   54.073   1.8300
 T, K             1596.97  1577.11  1454.63  1016.77
 RHO, KG/CU M    1.2273 1 1.1109 1 7.2826 0 3.9196-1
 H, KJ/KG        -1086.52 -1134.84 -1536.26 -3512.35
 U, KJ/KG        -1912.09 -1950.30 -2278.75 -3979.24
 G, KJ/KG        -20095.4 -19950.6 -18890.8 -15642.9
 S, KJ/(KG)(K)    11.9031  11.9305  11.9305  11.9305

 M, (1/n)          16.083   16.080   16.289   18.107
 MW, MOL WT        15.156   15.133   15.167   14.952
 (dLV/dLP)t      -1.05033 -1.05036 -1.05985 -1.10378
 (dLV/dLT)p        1.4304   1.4387   1.5915   2.6686
 Cp, KJ/(KG)(K)    4.4078   4.4793   5.5157  15.2147
 GAMMAs            1.2340   1.2324   1.2114   1.1250
 SON VEL,M/SEC     1009.3   1002.5    948.4    724.7
 MACH NUMBER        0.000    0.310    1.000    3.039

 PERFORMANCE PARAMETERS

 Ae/At                      2.0000   1.0000   8.0000
 CSTAR, M/SEC               1391.2   1391.2   1391.2
 CF                         0.2235   0.6817   1.5833
 Ivac, M/SEC                2934.0   1731.3   2414.6
 Isp, M/SEC                  310.9    948.4   2202.7

 MOLE FRACTIONS

 *CH             1.289-15 7.761-16 2.181-17 6.598-26
 CH2             4.542-11 3.163-11 2.652-12 2.717-18
 CH3             5.4840-6 4.5726-6 1.4471-6 1.8774-9
 CH2OH           5.604-10 4.367-10 1.109-10 2.155-14
 CH3O            2.994-11 2.251-11 4.497-12 2.505-16
 CH4             3.4842-2 3.4052-2 3.5317-2 2.7768-2
 CH3OH           2.5764-7 2.2759-7 1.5073-7 4.8439-9
 *CO             4.4277-1 4.4129-1 4.2722-1 2.6801-1
 *CO2            6.2868-3 6.5320-3 1.0655-2 6.4394-2
 COOH            1.283 -9 1.066 -9 4.271-10 8.549-13
 C2H             2.979-13 1.847-13 6.326-15 5.714-23
 C2H2,acetylene  1.175 -5 9.530 -6 2.241 -6 7.055-10
 C2H2,vinylidene 7.056-11 4.819-11 3.534-12 1.654-18
 CH2CO,ketene    4.9423-6 4.1787-6 1.6533-6 4.7362-9
 O(CH)2O         1.679-11 1.317-11 3.993-12 1.412-15
 HO(CO)2OH       8.848-16 7.236-16 4.686-16 3.032-18
 C2H3,vinyl      2.301 -9 1.665 -9 2.010-10 1.224-15
 CH3CO,acetyl    3.465 -9 2.675 -9 6.391-10 9.261-14
 C2H4            6.4371-5 5.5860-5 2.5849-5 2.2241-7
 C2H4O,ethylen-o 2.846-12 2.177-12 5.451-13 8.307-17
 CH3CHO,ethanal  2.154 -7 1.837 -7 9.615 -8 8.457-10
 CH3COOH         1.742 -9 1.517 -9 1.161 -9 4.732-11
 OHCH2COOH       4.390-14 3.484-14 1.808-14 4.619-17
 C2H5            2.071 -8 1.602 -8 3.803 -9 6.451-13
 C2H6            1.3313-5 1.1850-5 8.1060-6 3.9831-7
 C2H5OH          8.006-10 6.557-10 3.238-10 1.356-12
 CH3OCH3         2.927-12 2.288-12 8.248-13 6.011-16
 C2O             1.884-12 1.279-12 9.192-14 3.198-20
 C3H3,1-propynl  9.980-14 6.275-14 2.933-15 8.983-23
 C3H3,2-propynl  2.793 -9 1.949 -9 1.852-10 3.005-16
 C3H4,allene     2.960 -8 2.246 -8 4.183 -9 2.325-13
 C3H4,propyne    8.132 -8 6.210 -8 1.209 -8 8.504-13
 C3H4,cyclo-     3.522-11 2.465-11 2.657-12 7.144-18
 C3H5,allyl      2.727 -9 2.009 -9 3.428-10 9.734-15
 C3H6,propylene  3.025 -7 2.438 -7 8.495 -8 9.874-11
 C3H6,cyclo-     6.291-10 4.904-10 1.368-10 4.785-14
 C3H6O,propylox  1.135-14 8.115-15 1.599-15 4.223-20
 C3H6O,acetone   5.196-10 4.195-10 1.879-10 4.507-13
 C3H6O,propanal  1.938-10 1.510-10 5.329-11 3.501-14
 C3H7,n-propyl   2.105-11 1.489-11 2.404-12 3.153-17
 C3H7,i-propyl   2.066-11 1.479-11 2.578-12 5.076-17
 C3H8            1.412 -8 1.152 -8 5.446 -9 2.267-11
 C3H8O,1propanol 7.716-13 5.804-13 2.007-13 7.544-17
 C3H8O,2propanol 8.707-13 6.629-13 2.488-13 1.511-16
 C3O2            9.289-10 7.242-10 1.689-10 2.087-14
 C4H2,butadiyne  1.207-10 7.911-11 4.391-12 4.542-19
 C4H4,1,3-cyclo- 1.376-14 8.694-15 4.683-16 2.679-23
 C4H6,butadiene  2.058 -9 1.508 -9 2.767-10 9.715-15
 C4H6,1butyne    9.308-11 6.512-11 8.721-12 5.064-17
 C4H6,2butyne    1.043-10 7.467-11 1.167-11 1.562-16
 C4H6,cyclo-     2.582-12 1.824-12 2.614-13 2.283-18
 C4H8,1-butene   2.986-10 2.207-10 5.325-11 5.295-15
 C4H8,cis2-buten 1.403-10 1.047-10 2.713-11 3.914-15
 C4H8,tr2-butene 1.575-10 1.177-10 3.052-11 4.505-15
 C4H8,isobutene  1.870-10 1.404-10 3.773-11 6.778-15
 C4H8,cyclo-     9.875-14 7.107-14 1.438-14 5.579-19
 C4H9,n-butyl    5.669-14 3.719-14 4.481-15 7.661-21
 C4H9,i-butyl    3.498-14 2.314-14 2.943-15 6.858-21
 C4H9,s-butyl    3.805-14 2.500-14 3.039-15 5.321-21
 C4H9,t-butyl    1.211-14 8.157-15 1.172-15 5.087-21
 C4H10,n-butane  1.524-11 1.139-11 3.695-12 1.264-15
 C4H10,isobutane 5.515-12 4.154-12 1.422-12 6.609-16
 C5H6,1,3cyclo-  3.839-11 2.766-11 4.530-12 8.281-17
 C5H8,cyclo-     1.006-12 7.190-13 1.393-13 4.241-18
 C5H10,1-pentene 2.488-13 1.688-13 2.844-14 2.449-19
 C5H10,cyclo-    7.735-15 5.546-15 1.362-15 1.026-19
 C5H12,n-pentane 1.407-14 9.619-15 2.136-15 6.059-20
 C5H12,i-pentane 1.378-14 9.439-15 2.125-15 7.079-20
 CH3C(CH3)2CH3   8.059-16 5.517-16 1.252-16 5.283-21
 C6H2            1.326-15 7.032-16 9.296-18 3.345-28
 C6H5,phenyl     1.612-14 1.012-14 5.823-16 3.873-23
 C6H5O,phenoxy   6.889-16 4.528-16 4.530-17 3.465-23
 C6H6            3.999-10 3.033-10 7.029-11 8.631-15
 C6H5OH,phenol   1.766-13 1.262-13 2.476-14 6.333-19
 C6H10,cyclo-    3.133-16 2.081-16 3.059-17 1.398-22
 C6H12,1-hexene  2.058-16 1.283-16 1.508-17 1.121-23
 C7H7,benzyl     2.712-14 1.717-14 1.309-15 2.831-22
 C7H8            2.734-12 1.928-12 3.387-13 5.807-18
 C7H8O,cresol-mx 9.686-16 6.437-16 9.625-17 3.573-22
 C8H8,styrene    3.165-14 2.024-14 1.835-15 8.127-22
 C8H10,ethylbenz 3.060-15 1.974-15 2.364-16 3.215-22
 C10H8,naphthale 1.391-15 8.874-16 7.946-17 3.323-23
 *H              3.3710-6 2.8793-6 8.6655-7 1.4895-9
 HCO             1.767 -7 1.446 -7 4.096 -8 2.278-11
 HCCO            8.564-11 6.148-11 7.208-12 3.014-17
 *H2             4.3965-1 4.4018-1 4.3203-1 3.9471-1
 HCHO,formaldehy 9.1445-6 8.2036-6 4.8493-6 1.2908-7
 HCOOH           4.1949-7 3.8508-7 3.3879-7 4.6310-8
 H2O             1.8680-2 1.8960-2 2.5846-2 7.0844-2
 H2O2            1.804-15 1.320-15 2.498-16 6.363-21
 *O              3.532-14 2.478-14 2.236-15 3.000-21
 *OH             6.483 -9 5.299 -9 1.497 -9 8.571-13
 *O2             6.861-16 4.897-16 6.295-17 2.959-22
 C(gr)           5.7655-2 5.8893-2 6.8879-2 1.7427-1

  * THERMODYNAMIC PROPERTIES FITTED TO 20000.K

 NOTE. WEIGHT FRACTION OF FUEL IN TOTAL FUELS AND OF OXIDANT IN TOTAL OXIDANTS

              THEORETICAL ROCKET PERFORMANCE ASSUMING EQUILIBRIUM

            COMPOSITION DURING EXPANSION FROM FINITE AREA COMBUSTOR

 Pin =  1469.6 PSIA
 Ac/At =  2.0000      Pinj/Pinf =  1.054321
 CASE = test___________

             REACTANT                    WT FRACTION      ENERGY      TEMP
                                          (SEE NOTE)     KJ/KG-MOL      K  
 FUEL        RP-1                         1.0000000    -24717.700    298.150
 OXIDANT     O2(L)                        1.0000000    -12979.000     90.170

 O/F=    0.97305  %FUEL= 50.683017  R,EQ.RATIO= 3.500000  PHI,EQ.RATIO= 3.500000

                 INJECTOR  COMB END  THROAT     EXIT
 Pinj/P            1.0000   1.1181   1.8702   55.076
 P, BAR            101.33   90.623   54.179   1.8397
 T, K             1578.82  1559.55  1442.05  1013.28
 RHO, KG/CU M    1.2478 1 1.1295 1 7.3993 0 3.9708-1
 H, KJ/KG        -1096.39 -1143.77 -1537.96 -3492.17
 U, KJ/KG        -1908.45 -1946.08 -2270.18 -3955.49
 G, KJ/KG        -19820.6 -19681.9 -18679.3 -15536.9
 S, KJ/(KG)(K)    11.8596  11.8868  11.8868  11.8868

 M, (1/n)          16.165   16.162   16.375   18.184
 MW, MOL WT        15.013   14.988   15.014   14.773
 (dLV/dLP)t      -1.05428 -1.05432 -1.06373 -1.10481
 (dLV/dLT)p        1.4713   1.4803   1.6362   2.6807
 Cp, KJ/(KG)(K)    4.6443   4.7224   5.7942  15.2554
 GAMMAs            1.2277   1.2261   1.2061   1.1243
 SON VEL,M/SEC      998.5    991.8    939.7    721.7
 MACH NUMBER        0.000    0.310    1.000    3.033

 PERFORMANCE PARAMETERS

 Ae/At                      2.0000   1.0000   8.0000
 CSTAR, M/SEC               1382.1   1382.1   1382.1
 CF                         0.2227   0.6799   1.5838
 Ivac, M/SEC                2914.4   1718.9   2400.6
 Isp, M/SEC                  307.8    939.8   2189.0

 MOLE FRACTIONS

 *CH             7.614-16 4.603-16 1.401-17 5.103-26
 CH2             3.229-11 2.255-11 1.992-12 2.306-18
 CH3             4.8409-6 4.0417-6 1.3043-6 1.7752-9
 CH2OH           5.069-10 3.955-10 1.017-10 2.025-14
 CH3O            2.621-11 1.973-11 4.018-12 2.322-16
 CH4             3.7461-2 3.6615-2 3.7614-2 2.9014-2
 CH3OH           2.7529-7 2.4323-7 1.5926-7 4.9556-9
 *CO             4.2855-1 4.2699-1 4.1233-1 2.5517-1
 *CO2            6.8883-3 7.1492-3 1.1382-2 6.3927-2
 COOH            1.208 -9 1.004 -9 4.028-10 7.952-13
 C2H             1.808-13 1.125-13 4.156-15 4.474-23
 C2H2,acetylene  9.599 -6 7.797 -6 1.889 -6 6.393-10
 C2H2,vinylidene 4.927-11 3.374-11 2.614-12 1.391-18
 CH2CO,ketene    4.5703-6 3.8671-6 1.5424-6 4.4707-9
 O(CH)2O         1.580-11 1.241-11 3.774-12 1.322-15
 HO(CO)2OH       1.027-15 8.398-16 5.254-16 3.030-18
 C2H3,vinyl      1.784 -9 1.294 -9 1.626-10 1.088-15
 CH3CO,acetyl    3.107 -9 2.402 -9 5.825-10 8.677-14
 C2H4            6.2093-5 5.3933-5 2.5138-5 2.2066-7
 C2H4O,ethylen-o 2.666-12 2.042-12 5.164-13 7.997-17
 CH3CHO,ethanal  2.229 -7 1.903 -7 9.894 -8 8.525-10
 CH3COOH         2.002 -9 1.743 -9 1.301 -9 4.935-11
 OHCH2COOH       5.052-14 4.010-14 2.026-14 4.743-17
 C2H5            1.895 -8 1.469 -8 3.547 -9 6.283-13
 C2H6            1.4591-5 1.2994-5 8.8046-6 4.2506-7
 C2H5OH          8.863-10 7.262-10 3.538-10 1.429-12
 CH3OCH3         3.105-12 2.430-12 8.701-13 6.210-16
 C2O             1.284-12 8.740-13 6.624-14 2.583-20
 C3H3,1-propynl  6.809-14 4.296-14 2.132-15 7.517-23
 C3H3,2-propynl  2.096 -9 1.467 -9 1.458-10 2.632-16
 C3H4,allene     2.526 -8 1.920 -8 3.672 -9 2.178-13
 C3H4,propyne    6.980 -8 5.340 -8 1.067 -8 7.986-13
 C3H4,cyclo-     2.792-11 1.958-11 2.194-12 6.464-18
 C3H5,allyl      2.387 -9 1.762 -9 3.082-10 9.292-15
 C3H6,propylene  3.028 -7 2.443 -7 8.553 -8 1.010-10
 C3H6,cyclo-     6.108-10 4.769-10 1.343-10 4.827-14
 C3H6O,propylox  1.110-14 7.948-15 1.576-15 4.202-20
 C3H6O,acetone   5.678-10 4.587-10 2.031-10 4.720-13
 C3H6O,propanal  2.050-10 1.599-10 5.608-11 3.614-14
 C3H7,n-propyl   1.971-11 1.398-11 2.295-12 3.145-17
 C3H7,i-propyl   1.955-11 1.402-11 2.483-12 5.086-17
 C3H8            1.587 -8 1.296 -8 6.066 -9 2.480-11
 C3H8O,1propanol 8.775-13 6.608-13 2.252-13 8.156-17
 C3H8O,2propanol 1.001-12 7.629-13 2.818-13 1.643-16
 C3O2            7.831-10 6.112-10 1.450-10 1.831-14
 C4H2,butadiyne  8.117-11 5.336-11 3.148-12 3.755-19
 C4H4,1,3-cyclo- 9.935-15 6.296-15 3.577-16 2.319-23
 C4H6,butadiene  1.888 -9 1.386 -9 2.593-10 9.548-15
 C4H6,1butyne    8.189-11 5.742-11 7.886-12 4.874-17
 C4H6,2butyne    9.371-11 6.722-11 1.073-11 1.518-16
 C4H6,cyclo-     2.291-12 1.623-12 2.382-13 2.208-18
 C4H8,1-butene   3.066-10 2.269-10 5.500-11 5.550-15
 C4H8,cis2-buten 1.454-10 1.087-10 2.824-11 4.120-15
 C4H8,tr2-butene 1.633-10 1.222-10 3.177-11 4.744-15
 C4H8,isobutene  1.948-10 1.465-10 3.944-11 7.153-15
 C4H8,cyclo-     9.897-14 7.138-14 1.457-14 5.787-19
 C4H9,n-butyl    5.502-14 3.619-14 4.425-15 7.872-21
 C4H9,i-butyl    3.420-14 2.267-14 2.924-15 7.073-21
 C4H9,s-butyl    3.698-14 2.436-14 3.004-15 5.468-21
 C4H9,t-butyl    1.204-14 8.127-15 1.181-15 5.281-21
 C4H10,n-butane  1.755-11 1.314-11 4.217-12 1.417-15
 C4H10,isobutane 6.396-12 4.824-12 1.633-12 7.437-16
 C5H6,1,3cyclo-  3.470-11 2.506-11 4.191-12 8.077-17
 C5H8,cyclo-     1.002-12 7.179-13 1.403-13 4.387-18
 C5H10,1-pentene 2.623-13 1.784-13 3.015-14 2.632-19
 C5H10,cyclo-    8.577-15 6.160-15 1.507-15 1.131-19
 C5H12,n-pentane 1.658-14 1.136-14 2.497-15 6.964-20
 C5H12,i-pentane 1.627-14 1.117-14 2.489-15 8.156-20
 CH3C(CH3)2CH3   9.511-16 6.528-16 1.469-16 6.109-21
 C6H2            7.351-16 3.916-16 5.671-18 2.525-28
 C6H5,phenyl     1.219-14 7.676-15 4.632-16 3.450-23
 C6H5O,phenoxy   5.922-16 3.902-16 4.002-17 3.224-23
 C6H6            3.788-10 2.878-10 6.761-11 8.601-15
 C6H5OH,phenol   1.726-13 1.235-13 2.440-14 6.299-19
 C6H10,cyclo-    3.240-16 2.158-16 3.195-17 1.493-22
 C6H12,1-hexene  2.229-16 1.393-16 1.640-17 1.235-23
 C7H7,benzyl     2.295-14 1.458-14 1.149-15 2.696-22
 C7H8            2.689-12 1.900-12 3.376-13 5.966-18
 C7H8O,cresol-mx 9.837-16 6.550-16 9.831-17 3.666-22
 C8H8,styrene    2.847-14 1.826-14 1.698-15 8.010-22
 C8H10,ethylbenz 3.081-15 1.992-15 2.413-16 3.384-22
 C10H8,naphthale 1.249-15 7.992-16 7.341-17 3.273-23
 *H              2.7399-6 2.3438-6 7.2699-7 1.3414-9
 HCO             1.505 -7 1.232 -7 3.560 -8 2.055-11
 HCCO            6.474-11 4.658-11 5.673-12 2.571-17
 *H2             4.3527-1 4.3584-1 4.2784-1 3.9196-1
 HCHO,formaldehy 8.9261-6 8.0102-6 4.7329-6 1.2499-7
 HCOOH           4.5572-7 4.1823-7 3.6098-7 4.6445-8
 H2O             2.0409-2 2.0701-2 2.7710-2 7.2331-2
 H2O2            1.594-15 1.168-15 2.239-16 5.782-21
 *O              2.481-14 1.745-14 1.654-15 2.462-21
 *OH             5.517 -9 4.515 -9 1.301 -9 7.737-13
 *O2             5.336-16 3.816-16 5.055-17 2.502-22
 C(gr)           7.1314-2 7.2607-2 8.3075-2 1.8760-1

  * THERMODYNAMIC PROPERTIES FITTED TO 20000.K

 NOTE. WEIGHT FRACTION OF FUEL IN TOTAL FUELS AND OF OXIDANT IN TOTAL OXIDANTS

              THEORETICAL ROCKET PERFORMANCE ASSUMING EQUILIBRIUM

            COMPOSITION DURING EXPANSION FROM FINITE AREA COMBUSTOR

 Pin =  1469.6 PSIA
 Ac/At =  2.0000      Pinj/Pinf =  1.054151
 CASE = test___________

             REACTANT                    WT FRACTION      ENERGY      TEMP
                                          (SEE NOTE)     KJ/KG-MOL      K  
 FUEL        RP-1                         1.0000000    -24717.700    298.150
 OXIDANT     O2(L)                        1.0000000    -12979.000     90.170

 O/F=    0.94602  %FUEL= 51.386975  R,EQ.RATIO= 3.600000  PHI,EQ.RATIO= 3.600000

                 INJECTOR  COMB END  THROAT     EXIT
 Pinj/P            1.0000   1.1177   1.8668   54.807
 P, BAR            101.33   90.654   54.276   1.8488
 T, K             1562.16  1543.43  1430.36  1009.84
 RHO, KG/CU M    1.2676 1 1.1476 1 7.5127 0 4.0208-1
 H, KJ/KG        -1105.99 -1152.48 -1539.91 -3473.05
 U, KJ/KG        -1905.32 -1942.42 -2262.37 -3932.86
 G, KJ/KG        -19565.5 -19432.4 -18480.7 -15433.3
 S, KJ/(KG)(K)    11.8167  11.8437  11.8437  11.8437

 M, (1/n)          16.249   16.245   16.461   18.260
 MW, MOL WT        14.878   14.853   14.872   14.605
 (dLV/dLP)t      -1.05815 -1.05820 -1.06748 -1.10575
 (dLV/dLT)p        1.5121   1.5217   1.6799   2.6912
 Cp, KJ/(KG)(K)    4.8805   4.9648   6.0659  15.2824
 GAMMAs            1.2219   1.2203   1.2012   1.1236
 SON VEL,M/SEC      988.3    981.8    931.6    718.8
 MACH NUMBER        0.000    0.311    1.000    3.027

 PERFORMANCE PARAMETERS

 Ae/At                      2.0000   1.0000   8.0000
 CSTAR, M/SEC               1373.4   1373.4   1373.4
 CF                         0.2220   0.6783   1.5842
 Ivac, M/SEC                2895.5   1707.1   2387.1
 Isp, M/SEC                  304.9    931.6   2175.8

 MOLE FRACTIONS

 *CH             4.642-16 2.817-16 9.223-18 3.954-26
 CH2             2.342-11 1.640-11 1.519-12 1.958-18
 CH3             4.3022-6 3.5965-6 1.1817-6 1.6781-9
 CH2OH           4.604-10 3.596-10 9.361-11 1.902-14
 CH3O            2.308-11 1.741-11 3.606-12 2.151-16
 CH4             4.0064-2 3.9162-2 3.9891-2 3.0276-2
 CH3OH           2.9237-7 2.5837-7 1.6743-7 5.0606-9
 *CO             4.1495-1 4.1333-1 3.9815-1 2.4308-1
 *CO2            7.4859-3 7.7610-3 1.2082-2 6.3447-2
 COOH            1.139 -9 9.469-10 3.801-10 7.393-13
 C2H             1.130-13 7.058-14 2.793-15 3.510-23
 C2H2,acetylene  7.932 -6 6.453 -6 1.607 -6 5.796-10
 C2H2,vinylidene 3.514-11 2.413-11 1.965-12 1.171-18
 CH2CO,ketene    4.2389-6 3.5892-6 1.4420-6 4.2186-9
 O(CH)2O         1.489-11 1.170-11 3.568-12 1.237-15
 HO(CO)2OH       1.177-15 9.611-16 5.822-16 3.020-18
 C2H3,vinyl      1.404 -9 1.020 -9 1.330-10 9.677-16
 CH3CO,acetyl    2.800 -9 2.168 -9 5.327-10 8.123-14
 C2H4            5.9972-5 5.2136-5 2.4465-5 2.1870-7
 C2H4O,ethylen-o 2.503-12 1.920-12 4.897-13 7.687-17
 CH3CHO,ethanal  2.298 -7 1.962 -7 1.015 -7 8.580-10
 CH3COOH         2.275 -9 1.980 -9 1.445 -9 5.134-11
 OHCH2COOH       5.742-14 4.557-14 2.246-14 4.855-17
 C2H5            1.742 -8 1.353 -8 3.318 -9 6.111-13
 C2H6            1.5884-5 1.4153-5 9.5100-6 4.5250-7
 C2H5OH          9.729-10 7.976-10 3.839-10 1.502-12
 CH3OCH3         3.276-12 2.565-12 9.131-13 6.397-16
 C2O             8.947-13 6.104-13 4.854-14 2.089-20
 C3H3,1-propynl  4.751-14 3.007-14 1.576-15 6.293-23
 C3H3,2-propynl  1.600 -9 1.123 -9 1.162-10 2.306-16
 C3H4,allene     2.174 -8 1.656 -8 3.245 -9 2.038-13
 C3H4,propyne    6.042 -8 4.631 -8 9.468 -9 7.494-13
 C3H4,cyclo-     2.242-11 1.577-11 1.830-12 5.845-18
 C3H5,allyl      2.105 -9 1.557 -9 2.784-10 8.859-15
 C3H6,propylene  3.027 -7 2.445 -7 8.600 -8 1.030-10
 C3H6,cyclo-     5.935-10 4.641-10 1.319-10 4.859-14
 C3H6O,propylox  1.085-14 7.778-15 1.552-15 4.169-20
 C3H6O,acetone   6.157-10 4.977-10 2.181-10 4.928-13
 C3H6O,propanal  2.157-10 1.684-10 5.872-11 3.719-14
 C3H7,n-propyl   1.852-11 1.316-11 2.195-12 3.129-17
 C3H7,i-propyl   1.855-11 1.333-11 2.393-12 5.082-17
 C3H8            1.769 -8 1.446 -8 6.707 -9 2.704-11
 C3H8O,1propanol 9.878-13 7.446-13 2.505-13 8.782-17
 C3H8O,2propanol 1.139-12 8.685-13 3.162-13 1.779-16
 C3O2            6.653-10 5.198-10 1.252-10 1.607-14
 C4H2,butadiyne  5.588-11 3.685-11 2.298-12 3.108-19
 C4H4,1,3-cyclo- 7.309-15 4.647-15 2.771-16 2.008-23
 C4H6,butadiene  1.740 -9 1.280 -9 2.437-10 9.366-15
 C4H6,1butyne    7.252-11 5.097-11 7.164-12 4.682-17
 C4H6,2butyne    8.463-11 6.083-11 9.912-12 1.472-16
 C4H6,cyclo-     2.047-12 1.452-12 2.180-13 2.132-18
 C4H8,1-butene   3.138-10 2.327-10 5.663-11 5.799-15
 C4H8,cis2-buten 1.502-10 1.125-10 2.929-11 4.322-15
 C4H8,tr2-butene 1.687-10 1.264-10 3.296-11 4.979-15
 C4H8,isobutene  2.022-10 1.522-10 4.108-11 7.524-15
 C4H8,cyclo-     9.906-14 7.157-14 1.472-14 5.983-19
 C4H9,n-butyl    5.342-14 3.522-14 4.367-15 8.060-21
 C4H9,i-butyl    3.343-14 2.222-14 2.903-15 7.268-21
 C4H9,s-butyl    3.595-14 2.373-14 2.967-15 5.599-21
 C4H9,t-butyl    1.195-14 8.088-15 1.187-15 5.462-21
 C4H10,n-butane  2.001-11 1.499-11 4.770-12 1.582-15
 C4H10,isobutane 7.340-12 5.544-12 1.858-12 8.329-16
 C5H6,1,3cyclo-  3.152-11 2.281-11 3.890-12 7.863-17
 C5H8,cyclo-     9.972-13 7.159-13 1.412-13 4.523-18
 C5H10,1-pentene 2.753-13 1.876-13 3.181-14 2.816-19
 C5H10,cyclo-    9.436-15 6.790-15 1.656-15 1.241-19
 C5H12,n-pentane 1.932-14 1.327-14 2.890-15 7.958-20
 C5H12,i-pentane 1.898-14 1.306-14 2.886-15 9.342-20
 CH3C(CH3)2CH3   1.110-15 7.635-16 1.707-16 7.024-21
 C6H2            4.220-16 2.259-16 3.555-18 1.909-28
 C6H5,phenyl     9.367-15 5.916-15 3.728-16 3.069-23
 C6H5O,phenoxy   5.127-16 3.386-16 3.553-17 2.995-23
 C6H6            3.595-10 2.737-10 6.510-11 8.555-15
 C6H5OH,phenol   1.686-13 1.208-13 2.401-14 6.248-19
 C6H10,cyclo-    3.340-16 2.230-16 3.324-17 1.587-22
 C6H12,1-hexene  2.398-16 1.502-16 1.773-17 1.354-23
 C7H7,benzyl     1.960-14 1.249-14 1.015-15 2.561-22
 C7H8            2.644-12 1.872-12 3.360-13 6.111-18
 C7H8O,cresol-mx 9.958-16 6.643-16 1.001-16 3.746-22
 C8H8,styrene    2.575-14 1.655-14 1.576-15 7.870-22
 C8H10,ethylbenz 3.096-15 2.007-15 2.456-16 3.546-22
 C10H8,naphthale 1.127-15 7.235-16 6.805-17 3.215-23
 *H              2.2542-6 1.9312-6 6.1570-7 1.2092-9
 HCO             1.292 -7 1.059 -7 3.113 -8 1.855-11
 HCCO            4.970-11 3.583-11 4.518-12 2.195-17
 *H2             4.3090-1 4.3152-1 4.2371-1 3.8922-1
 HCHO,formaldehy 8.7103-6 7.8188-6 4.6177-6 1.2096-7
 HCOOH           4.9125-7 4.5068-7 3.8221-7 4.6519-8
 H2O             2.2137-2 2.2440-2 2.9542-2 7.3789-2
 H2O2            1.415-15 1.038-15 2.013-16 5.250-21
 *O              1.778-14 1.254-14 1.242-15 2.024-21
 *OH             4.733 -9 3.878 -9 1.138 -9 6.988-13
 *O2             4.204-16 3.011-16 4.098-17 2.117-22
 C(gr)           8.4355-2 8.5697-2 9.6588-2 2.0019-1

  * THERMODYNAMIC PROPERTIES FITTED TO 20000.K

 NOTE. WEIGHT FRACTION OF FUEL IN TOTAL FUELS AND OF OXIDANT IN TOTAL OXIDANTS

              THEORETICAL ROCKET PERFORMANCE ASSUMING EQUILIBRIUM

            COMPOSITION DURING EXPANSION FROM FINITE AREA COMBUSTOR

 Pin =  1469.6 PSIA
 Ac/At =  2.0000      Pinj/Pinf =  1.053995
 CASE = test___________

             REACTANT                    WT FRACTION      ENERGY      TEMP
                                          (SEE NOTE)     KJ/KG-MOL      K  
 FUEL        RP-1                         1.0000000    -24717.700    298.150
 OXIDANT     O2(L)                        1.0000000    -12979.000     90.170

 O/F=    0.92045  %FUEL= 52.071120  R,EQ.RATIO= 3.700000  PHI,EQ.RATIO= 3.700000

                 INJECTOR  COMB END  THROAT     EXIT
 Pinj/P            1.0000   1.1173   1.8638   54.558
 P, BAR            101.33   90.683   54.366   1.8572
 T, K             1546.79  1528.55  1419.47  1006.44
 RHO, KG/CU M    1.2869 1 1.1652 1 7.6230 0 4.0697-1
 H, KJ/KG        -1115.31 -1160.98 -1542.07 -3454.90
 U, KJ/KG        -1902.65 -1939.23 -2255.25 -3911.25
 G, KJ/KG        -19327.8 -19199.7 -18293.6 -15332.1
 S, KJ/(KG)(K)    11.7744  11.8012  11.8012  11.8012

 M, (1/n)          16.335   16.330   16.549   18.337
 MW, MOL WT        14.753   14.727   14.737   14.448
 (dLV/dLP)t      -1.06192 -1.06198 -1.07109 -1.10661
 (dLV/dLT)p        1.5525   1.5626   1.7225   2.7003
 Cp, KJ/(KG)(K)    5.1147   5.2049   6.3296  15.2966
 GAMMAs            1.2165   1.2149   1.1968   1.1230
 SON VEL,M/SEC      978.7    972.4    923.9    715.9
 MACH NUMBER        0.000    0.311    1.000    3.022

 PERFORMANCE PARAMETERS

 Ae/At                      2.0000   1.0000   8.0000
 CSTAR, M/SEC               1365.0   1365.0   1365.0
 CF                         0.2214   0.6768   1.5847
 Ivac, M/SEC                2877.5   1695.8   2374.1
 Isp, M/SEC                  302.2    923.9   2163.1

 MOLE FRACTIONS

 *CH             2.912-16 1.774-16 6.204-18 3.070-26
 CH2             1.730-11 1.214-11 1.175-12 1.665-18
 CH3             3.8472-6 3.2201-6 1.0755-6 1.5861-9
 CH2OH           4.197-10 3.282-10 8.638-11 1.785-14
 CH3O            2.045-11 1.545-11 3.250-12 1.991-16
 CH4             4.2644-2 4.1687-2 4.2145-2 3.1554-2
 CH3OH           3.0883-7 2.7295-7 1.7524-7 5.1591-9
 *CO             4.0193-1 4.0025-1 3.8463-1 2.3169-1
 *CO2            8.0754-3 8.3631-3 1.2753-2 6.2951-2
 COOH            1.074 -9 8.934-10 3.588-10 6.872-13
 C2H             7.258-14 4.550-14 1.917-15 2.759-23
 C2H2,acetylene  6.624 -6 5.397 -6 1.379 -6 5.258-10
 C2H2,vinylidene 2.554-11 1.759-11 1.499-12 9.865-19
 CH2CO,ketene    3.9423-6 3.3403-6 1.3509-6 3.9795-9
 O(CH)2O         1.404-11 1.104-11 3.374-12 1.157-15
 HO(CO)2OH       1.330-15 1.086-15 6.387-16 3.003-18
 C2H3,vinyl      1.119 -9 8.151-10 1.099-10 8.607-16
 CH3CO,acetyl    2.534 -9 1.964 -9 4.887-10 7.600-14
 C2H4            5.7992-5 5.0457-5 2.3828-5 2.1656-7
 C2H4O,ethylen-o 2.355-12 1.808-12 4.650-13 7.379-17
 CH3CHO,ethanal  2.360 -7 2.016 -7 1.037 -7 8.620-10
 CH3COOH         2.558 -9 2.226 -9 1.592 -9 5.327-11
 OHCH2COOH       6.452-14 5.121-14 2.467-14 4.956-17
 C2H5            1.608 -8 1.250 -8 3.112 -9 5.936-13
 C2H6            1.7188-5 1.5322-5 1.0220-5 4.8063-7
 C2H5OH          1.060 -9 8.694-10 4.140-10 1.574-12
 CH3OCH3         3.437-12 2.694-12 9.539-13 6.573-16
 C2O             6.358-13 4.348-13 3.612-14 1.693-20
 C3H3,1-propynl  3.383-14 2.148-14 1.183-15 5.272-23
 C3H3,2-propynl  1.240 -9 8.719-10 9.373-11 2.021-16
 C3H4,allene     1.886 -8 1.439 -8 2.885 -9 1.907-13
 C3H4,propyne    5.270 -8 4.046 -8 8.453 -9 7.028-13
 C3H4,cyclo-     1.823-11 1.285-11 1.539-12 5.284-18
 C3H5,allyl      1.867 -9 1.384 -9 2.527-10 8.437-15
 C3H6,propylene  3.022 -7 2.444 -7 8.637 -8 1.049-10
 C3H6,cyclo-     5.771-10 4.519-10 1.296-10 4.882-14
 C3H6O,propylox  1.059-14 7.606-15 1.526-15 4.127-20
 C3H6O,acetone   6.631-10 5.363-10 2.329-10 5.131-13
 C3H6O,propanal  2.257-10 1.764-10 6.122-11 3.817-14
 C3H7,n-propyl   1.744-11 1.241-11 2.101-12 3.106-17
 C3H7,i-propyl   1.763-11 1.269-11 2.309-12 5.067-17
 C3H8            1.956 -8 1.601 -8 7.369 -9 2.938-11
 C3H8O,1propanol 1.102-12 8.312-13 2.765-13 9.419-17
 C3H8O,2propanol 1.282-12 9.789-13 3.519-13 1.919-16
 C3O2            5.693-10 4.452-10 1.087-10 1.412-14
 C4H2,butadiyne  3.929-11 2.599-11 1.705-12 2.575-19
 C4H4,1,3-cyclo- 5.470-15 3.489-15 2.174-16 1.738-23
 C4H6,butadiene  1.609 -9 1.186 -9 2.295-10 9.171-15
 C4H6,1butyne    6.462-11 4.551-11 6.536-12 4.491-17
 C4H6,2butyne    7.681-11 5.532-11 9.182-12 1.424-16
 C4H6,cyclo-     1.838-12 1.307-12 2.003-13 2.054-18
 C4H8,1-butene   3.204-10 2.379-10 5.815-11 6.040-15
 C4H8,cis2-buten 1.546-10 1.160-10 3.029-11 4.520-15
 C4H8,tr2-butene 1.737-10 1.303-10 3.409-11 5.209-15
 C4H8,isobutene  2.090-10 1.577-10 4.264-11 7.889-15
 C4H8,cyclo-     9.902-14 7.167-14 1.486-14 6.167-19
 C4H9,n-butyl    5.189-14 3.429-14 4.308-15 8.224-21
 C4H9,i-butyl    3.268-14 2.177-14 2.879-15 7.442-21
 C4H9,s-butyl    3.496-14 2.313-14 2.929-15 5.713-21
 C4H9,t-butyl    1.186-14 8.040-15 1.192-15 5.630-21
 C4H10,n-butane  2.260-11 1.696-11 5.355-12 1.757-15
 C4H10,isobutane 8.344-12 6.310-12 2.097-12 9.288-16
 C5H6,1,3cyclo-  2.876-11 2.085-11 3.622-12 7.641-17
 C5H8,cyclo-     9.916-13 7.132-13 1.418-13 4.650-18
 C5H10,1-pentene 2.876-13 1.964-13 3.342-14 3.000-19
 C5H10,cyclo-    1.031-14 7.430-15 1.807-15 1.355-19
 C5H12,n-pentane 2.228-14 1.532-14 3.313-15 9.045-20
 C5H12,i-pentane 2.192-14 1.510-14 3.316-15 1.064-19
 CH3C(CH3)2CH3   1.282-15 8.837-16 1.964-16 8.033-21
 C6H2            2.501-16 1.345-16 2.283-18 1.445-28
 C6H5,phenyl     7.303-15 4.626-15 3.034-16 2.729-23
 C6H5O,phenoxy   4.468-16 2.957-16 3.169-17 2.778-23
 C6H6            3.420-10 2.607-10 6.276-11 8.493-15
 C6H5OH,phenol   1.645-13 1.181-13 2.359-14 6.183-19
 C6H10,cyclo-    3.433-16 2.297-16 3.447-17 1.681-22
 C6H12,1-hexene  2.565-16 1.609-16 1.906-17 1.476-23
 C7H7,benzyl     1.688-14 1.078-14 9.012-16 2.428-22
 C7H8            2.600-12 1.844-12 3.343-13 6.240-18
 C7H8O,cresol-mx 1.005-15 6.717-16 1.015-16 3.815-22
 C8H8,styrene    2.339-14 1.508-14 1.467-15 7.713-22
 C8H10,ethylbenz 3.105-15 2.018-15 2.494-16 3.702-22
 C10H8,naphthale 1.023-15 6.580-16 6.326-17 3.149-23
 *H              1.8752-6 1.6088-6 5.2590-7 1.0912-9
 HCO             1.117 -7 9.167 -8 2.738 -8 1.675-11
 HCCO            3.869-11 2.795-11 3.636-12 1.876-17
 *H2             4.2657-1 4.2724-1 4.1963-1 3.8650-1
 HCHO,formaldehy 8.4975-6 7.6298-6 4.5041-6 1.1701-7
 HCOOH           5.2582-7 4.8223-7 4.0240-7 4.6534-8
 H2O             2.3856-2 2.4169-2 3.1338-2 7.5217-2
 H2O2            1.261-15 9.264-16 1.816-16 4.764-21
 *O              1.298-14 9.173-15 9.460-16 1.666-21
 *OH             4.091 -9 3.355 -9 1.001 -9 6.314-13
 *O2             3.350-16 2.404-16 3.352-17 1.792-22
 C(gr)           9.6818-2 9.8204-2 1.0946-1 2.1209-1

  * THERMODYNAMIC PROPERTIES FITTED TO 20000.K

 NOTE. WEIGHT FRACTION OF FUEL IN TOTAL FUELS AND OF OXIDANT IN TOTAL OXIDANTS

              THEORETICAL ROCKET PERFORMANCE ASSUMING EQUILIBRIUM

            COMPOSITION DURING EXPANSION FROM FINITE AREA COMBUSTOR

 Pin =  1469.6 PSIA
 Ac/At =  2.0000      Pinj/Pinf =  1.053850
 CASE = test___________

             REACTANT                    WT FRACTION      ENERGY      TEMP
                                          (SEE NOTE)     KJ/KG-MOL      K  
 FUEL        RP-1                         1.0000000    -24717.700    298.150
 OXIDANT     O2(L)                        1.0000000    -12979.000     90.170

 O/F=    0.89623  %FUEL= 52.736275  R,EQ.RATIO= 3.800000  PHI,EQ.RATIO= 3.800000

                 INJECTOR  COMB END  THROAT     EXIT
 Pinj/P            1.0000   1.1170   1.8609   54.328
 P, BAR            101.33   90.710   54.448   1.8651
 T, K             1532.57  1514.79  1409.29  1003.09
 RHO, KG/CU M    1.3058 1 1.1823 1 7.7306 0 4.1176-1
 H, KJ/KG        -1124.38 -1169.27 -1544.40 -3437.62
 U, KJ/KG        -1900.37 -1936.47 -2248.72 -3890.58
 G, KJ/KG        -19105.6 -18982.1 -18116.6 -15233.2
 S, KJ/(KG)(K)    11.7327  11.7593  11.7593  11.7593

 M, (1/n)          16.421   16.416   16.637   18.413
 MW, MOL WT        14.635   14.608   14.611   14.300
 (dLV/dLP)t      -1.06558 -1.06564 -1.07456 -1.10739
 (dLV/dLT)p        1.5922   1.6028   1.7637   2.7081
 Cp, KJ/(KG)(K)    5.3456   5.4412   6.5844  15.2988
 GAMMAs            1.2114   1.2099   1.1927   1.1224
 SON VEL,M/SEC      969.6    963.5    916.5    713.0
 MACH NUMBER        0.000    0.311    1.000    3.017

 PERFORMANCE PARAMETERS

 Ae/At                      2.0000   1.0000   8.0000
 CSTAR, M/SEC               1357.0   1357.0   1357.0
 CF                         0.2208   0.6754   1.5851
 Ivac, M/SEC                2860.1   1685.0   2361.5
 Isp, M/SEC                  299.6    916.5   2150.9

 MOLE FRACTIONS

 *CH             1.875-16 1.146-16 4.257-18 2.388-26
 CH2             1.299-11 9.141-12 9.197-13 1.417-18
 CH3             3.4597-6 2.8991-6 9.8296-7 1.4990-9
 CH2OH           3.840-10 3.006-10 7.990-11 1.674-14
 CH3O            1.821-11 1.377-11 2.939-12 1.843-16
 CH4             4.5196-2 4.4185-2 4.4374-2 3.2848-2
 CH3OH           3.2462-7 2.8695-7 1.8268-7 5.2511-9
 *CO             3.8946-1 3.8773-1 3.7174-1 2.2095-1
 *CO2            8.6532-3 8.9520-3 1.3394-2 6.2440-2
 COOH            1.014 -9 8.436-10 3.389-10 6.385-13
 C2H             4.778-14 3.005-14 1.340-15 2.173-23
 C2H2,acetylene  5.585 -6 4.557 -6 1.191 -6 4.772-10
 C2H2,vinylidene 1.890-11 1.305-11 1.158-12 8.320-19
 CH2CO,ketene    3.6756-6 3.1163-6 1.2677-6 3.7530-9
 O(CH)2O         1.325-11 1.042-11 3.192-12 1.081-15
 HO(CO)2OH       1.487-15 1.213-15 6.941-16 2.979-18
 C2H3,vinyl      9.033-10 6.592-10 9.158-11 7.658-16
 CH3CO,acetyl    2.303 -9 1.787 -9 4.496-10 7.105-14
 C2H4            5.6138-5 4.8884-5 2.3223-5 2.1426-7
 C2H4O,ethylen-o 2.219-12 1.706-12 4.418-13 7.075-17
 CH3CHO,ethanal  2.416 -7 2.065 -7 1.057 -7 8.649-10
 CH3COOH         2.850 -9 2.480 -9 1.740 -9 5.516-11
 OHCH2COOH       7.177-14 5.695-14 2.687-14 5.045-17
 C2H5            1.490 -8 1.160 -8 2.927 -9 5.760-13
 C2H6            1.8498-5 1.6497-5 1.0935-5 5.0941-7
 C2H5OH          1.147 -9 9.412-10 4.438-10 1.646-12
 CH3OCH3         3.590-12 2.816-12 9.924-13 6.737-16
 C2O             4.599-13 3.153-13 2.724-14 1.374-20
 C3H3,1-propynl  2.454-14 1.563-14 9.010-16 4.419-23
 C3H3,2-propynl  9.737-10 6.865-10 7.637-11 1.772-16
 C3H4,allene     1.649 -8 1.260 -8 2.578 -9 1.783-13
 C3H4,propyne    4.629 -8 3.560 -8 7.585 -9 6.589-13
 C3H4,cyclo-     1.498-11 1.058-11 1.306-12 4.776-18
 C3H5,allyl      1.667 -9 1.238 -9 2.303-10 8.026-15
 C3H6,propylene  3.015 -7 2.441 -7 8.664 -8 1.066-10
 C3H6,cyclo-     5.615-10 4.403-10 1.273-10 4.896-14
 C3H6O,propylox  1.033-14 7.433-15 1.499-15 4.077-20
 C3H6O,acetone   7.097-10 5.743-10 2.473-10 5.329-13
 C3H6O,propanal  2.352-10 1.839-10 6.356-11 3.909-14
 C3H7,n-propyl   1.646-11 1.174-11 2.014-12 3.076-17
 C3H7,i-propyl   1.678-11 1.210-11 2.229-12 5.041-17
 C3H8            2.149 -8 1.760 -8 8.049 -9 3.182-11
 C3H8O,1propanol 1.219-12 9.201-13 3.030-13 1.007-16
 C3H8O,2propanol 1.432-12 1.094-12 3.887-13 2.063-16
 C3O2            4.903-10 3.837-10 9.481-11 1.240-14
 C4H2,butadiyne  2.817-11 1.869-11 1.283-12 2.136-19
 C4H4,1,3-cyclo- 4.159-15 2.660-15 1.726-16 1.504-23
 C4H6,butadiene  1.494 -9 1.103 -9 2.166-10 8.966-15
 C4H6,1butyne    5.790-11 4.086-11 5.985-12 4.301-17
 C4H6,2butyne    7.003-11 5.053-11 8.532-12 1.377-16
 C4H6,cyclo-     1.660-12 1.183-12 1.846-13 1.977-18
 C4H8,1-butene   3.263-10 2.427-10 5.957-11 6.274-15
 C4H8,cis2-buten 1.587-10 1.192-10 3.123-11 4.714-15
 C4H8,tr2-butene 1.784-10 1.340-10 3.516-11 5.434-15
 C4H8,isobutene  2.155-10 1.628-10 4.413-11 8.249-15
 C4H8,cyclo-     9.888-14 7.169-14 1.497-14 6.339-19
 C4H9,n-butyl    5.042-14 3.339-14 4.247-15 8.366-21
 C4H9,i-butyl    3.195-14 2.133-14 2.853-15 7.597-21
 C4H9,s-butyl    3.400-14 2.255-14 2.889-15 5.812-21
 C4H9,t-butyl    1.176-14 7.986-15 1.194-15 5.784-21
 C4H10,n-butane  2.532-11 1.902-11 5.967-12 1.945-15
 C4H10,isobutane 9.405-12 7.120-12 2.349-12 1.031-15
 C5H6,1,3cyclo-  2.636-11 1.915-11 3.381-12 7.414-17
 C5H8,cyclo-     9.853-13 7.099-13 1.423-13 4.767-18
 C5H10,1-pentene 2.994-13 2.048-13 3.498-14 3.185-19
 C5H10,cyclo-    1.119-14 8.080-15 1.962-15 1.474-19
 C5H12,n-pentane 2.545-14 1.753-14 3.767-15 1.023-19
 C5H12,i-pentane 2.507-14 1.730-14 3.777-15 1.206-19
 CH3C(CH3)2CH3   1.467-15 1.013-15 2.242-16 9.139-21
 C6H2            1.526-16 8.241-17 1.498-18 1.096-28
 C6H5,phenyl     5.769-15 3.665-15 2.492-16 2.425-23
 C6H5O,phenoxy   3.917-16 2.598-16 2.837-17 2.573-23
 C6H6            3.259-10 2.488-10 6.056-11 8.418-15
 C6H5OH,phenol   1.605-13 1.154-13 2.317-14 6.105-19
 C6H10,cyclo-    3.518-16 2.359-16 3.564-17 1.773-22
 C6H12,1-hexene  2.728-16 1.715-16 2.038-17 1.601-23
 C7H7,benzyl     1.464-14 9.376-15 8.044-16 2.298-22
 C7H8            2.555-12 1.815-12 3.322-13 6.355-18
 C7H8O,cresol-mx 1.012-15 6.773-16 1.027-16 3.873-22
 C8H8,styrene    2.135-14 1.379-14 1.368-15 7.540-22
 C8H10,ethylbenz 3.111-15 2.026-15 2.527-16 3.850-22
 C10H8,naphthale 9.318-16 6.010-16 5.896-17 3.076-23
 *H              1.576 -6 1.354 -6 4.527 -7 9.858-10
 HCO             9.726 -8 7.988 -8 2.420 -8 1.513-11
 HCCO            3.050-11 2.207-11 2.955-12 1.604-17
 *H2             4.2229-1 4.2300-1 4.1561-1 3.8379-1
 HCHO,formaldehy 8.2882-6 7.4436-6 4.3921-6 1.1314-7
 HCOOH           5.5926-7 5.1270-7 4.2150-7 4.6494-8
 H2O             2.5559-2 2.5879-2 3.3095-2 7.6615-2
 H2O2            1.129-15 8.300-16 1.642-16 4.321-21
 *O              9.633-15 6.822-15 7.295-16 1.373-21
 *OH             3.561 -9 2.923 -9 8.845-10 5.707-13
 *O2             2.698-16 1.939-16 2.763-17 1.518-22
 C(gr)           1.0874-1 1.1017-1 1.2174-1 2.2335-1

  * THERMODYNAMIC PROPERTIES FITTED TO 20000.K

 NOTE. WEIGHT FRACTION OF FUEL IN TOTAL FUELS AND OF OXIDANT IN TOTAL OXIDANTS

              THEORETICAL ROCKET PERFORMANCE ASSUMING EQUILIBRIUM

            COMPOSITION DURING EXPANSION FROM FINITE AREA COMBUSTOR

 Pin =  1469.6 PSIA
 Ac/At =  2.0000      Pinj/Pinf =  1.053717
 CASE = test___________

             REACTANT                    WT FRACTION      ENERGY      TEMP
                                          (SEE NOTE)     KJ/KG-MOL      K  
 FUEL        RP-1                         1.0000000    -24717.700    298.150
 OXIDANT     O2(L)                        1.0000000    -12979.000     90.170

 O/F=    0.87325  %FUEL= 53.383221  R,EQ.RATIO= 3.900000  PHI,EQ.RATIO= 3.900000

                 INJECTOR  COMB END  THROAT     EXIT
 Pinj/P            1.0000   1.1167   1.8584   54.114
 P, BAR            101.33   90.735   54.524   1.8724
 T, K             1519.36  1501.99  1399.72   999.78
 RHO, KG/CU M    1.3241 1 1.1991 1 7.8355 0 4.1646-1
 H, KJ/KG        -1133.20 -1177.36 -1546.86 -3421.15
 U, KJ/KG        -1898.42 -1934.07 -2242.71 -3870.76
 G, KJ/KG        -18897.1 -18777.8 -17948.9 -15136.6
 S, KJ/(KG)(K)    11.6917  11.7181  11.7181  11.7181

 M, (1/n)          16.508   16.503   16.725   18.489
 MW, MOL WT        14.525   14.496   14.493   14.162
 (dLV/dLP)t      -1.06912 -1.06919 -1.07788 -1.10810
 (dLV/dLT)p        1.6311   1.6422   1.8036   2.7145
 Cp, KJ/(KG)(K)    5.5719   5.6726   6.8298  15.2898
 GAMMAs            1.2068   1.2053   1.1889   1.1219
 SON VEL,M/SEC      961.0    955.0    909.6    710.2
 MACH NUMBER        0.000    0.311    1.000    3.012

 PERFORMANCE PARAMETERS

 Ae/At                      2.0000   1.0000   8.0000
 CSTAR, M/SEC               1349.2   1349.2   1349.2
 CF                         0.2203   0.6741   1.5854
 Ivac, M/SEC                2843.4   1674.6   2349.3
 Isp, M/SEC                  297.2    909.6   2139.1

 MOLE FRACTIONS

 *CH             1.236-16 7.581-17 2.973-18 1.861-26
 CH2             9.900-12 6.984-12 7.283-13 1.207-18
 CH3             3.1272-6 2.6234-6 9.0181-7 1.4165-9
 CH2OH           3.525-10 2.762-10 7.407-11 1.569-14
 CH3O            1.630-11 1.234-11 2.668-12 1.704-16
 CH4             4.7717-2 4.6653-2 4.6577-2 3.4156-2
 CH3OH           3.3972-7 3.0033-7 1.8974-7 5.3368-9
 *CO             3.7752-1 3.7574-1 3.5944-1 2.1081-1
 *CO2            9.2165-3 9.5249-3 1.4003-2 6.1914-2
 COOH            9.576-10 7.972-10 3.203-10 5.931-13
 C2H             3.216-14 2.029-14 9.530-16 1.714-23
 C2H2,acetylene  4.750 -6 3.882 -6 1.036 -6 4.334-10
 C2H2,vinylidene 1.420-11 9.829-12 9.060-13 7.024-19
 CH2CO,ketene    3.4348-6 2.9138-6 1.1917-6 3.5387-9
 O(CH)2O         1.251-11 9.850-12 3.020-12 1.009-15
 HO(CO)2OH       1.645-15 1.341-15 7.482-16 2.949-18
 C2H3,vinyl      7.370-10 5.390-10 7.697-11 6.816-16
 CH3CO,acetyl    2.100 -9 1.631 -9 4.146-10 6.640-14
 C2H4            5.4400-5 4.7407-5 2.2647-5 2.1182-7
 C2H4O,ethylen-o 2.094-12 1.611-12 4.202-13 6.777-17
 CH3CHO,ethanal  2.466 -7 2.108 -7 1.075 -7 8.664-10
 CH3COOH         3.148 -9 2.739 -9 1.889 -9 5.699-11
 OHCH2COOH       7.908-14 6.274-14 2.904-14 5.123-17
 C2H5            1.385 -8 1.080 -8 2.758 -9 5.583-13
 C2H6            1.9811-5 1.7675-5 1.1651-5 5.3883-7
 C2H5OH          1.233 -9 1.013 -9 4.733-10 1.716-12
 CH3OCH3         3.734-12 2.931-12 1.029-12 6.889-16
 C2O             3.382-13 2.323-13 2.080-14 1.116-20
 C3H3,1-propynl  1.810-14 1.156-14 6.946-16 3.707-23
 C3H3,2-propynl  7.745-10 5.473-10 6.281-11 1.554-16
 C3H4,allene     1.450 -8 1.110 -8 2.314 -9 1.666-13
 C3H4,propyne    4.091 -8 3.151 -8 6.837 -9 6.174-13
 C3H4,cyclo-     1.243-11 8.804-12 1.115-12 4.316-18
 C3H5,allyl      1.496 -9 1.113 -9 2.107-10 7.629-15
 C3H6,propylene  3.006 -7 2.436 -7 8.683 -8 1.081-10
 C3H6,cyclo-     5.467-10 4.292-10 1.250-10 4.902-14
 C3H6O,propylox  1.008-14 7.259-15 1.471-15 4.018-20
 C3H6O,acetone   7.554-10 6.116-10 2.615-10 5.522-13
 C3H6O,propanal  2.441-10 1.910-10 6.576-11 3.993-14
 C3H7,n-propyl   1.557-11 1.112-11 1.933-12 3.041-17
 C3H7,i-propyl   1.600-11 1.156-11 2.154-12 5.005-17
 C3H8            2.346 -8 1.923 -8 8.746 -9 3.436-11
 C3H8O,1propanol 1.338-12 1.011-12 3.299-13 1.072-16
 C3H8O,2propanol 1.585-12 1.212-12 4.265-13 2.210-16
 C3O2            4.247-10 3.326-10 8.307-11 1.091-14
 C4H2,butadiyne  2.055-11 1.367-11 9.787-13 1.774-19
 C4H4,1,3-cyclo- 3.207-15 2.057-15 1.385-16 1.302-23
 C4H6,butadiene  1.391 -9 1.029 -9 2.049-10 8.753-15
 C4H6,1butyne    5.214-11 3.687-11 5.499-12 4.113-17
 C4H6,2butyne    6.411-11 4.634-11 7.949-12 1.329-16
 C4H6,cyclo-     1.505-12 1.075-12 1.707-13 1.900-18
 C4H8,1-butene   3.317-10 2.470-10 6.089-11 6.499-15
 C4H8,cis2-buten 1.626-10 1.223-10 3.213-11 4.902-15
 C4H8,tr2-butene 1.827-10 1.375-10 3.618-11 5.654-15
 C4H8,isobutene  2.216-10 1.676-10 4.554-11 8.601-15
 C4H8,cyclo-     9.864-14 7.163-14 1.506-14 6.500-19
 C4H9,n-butyl    4.902-14 3.253-14 4.185-15 8.485-21
 C4H9,i-butyl    3.124-14 2.090-14 2.826-15 7.733-21
 C4H9,s-butyl    3.309-14 2.199-14 2.849-15 5.895-21
 C4H9,t-butyl    1.164-14 7.925-15 1.196-15 5.925-21
 C4H10,n-butane  2.815-11 2.118-11 6.608-12 2.144-15
 C4H10,isobutane 1.052-11 7.972-12 2.614-12 1.141-15
 C5H6,1,3cyclo-  2.425-11 1.765-11 3.165-12 7.184-17
 C5H8,cyclo-     9.783-13 7.060-13 1.426-13 4.874-18
 C5H10,1-pentene 3.106-13 2.128-13 3.648-14 3.368-19
 C5H10,cyclo-    1.209-14 8.736-15 2.119-15 1.598-19
 C5H12,n-pentane 2.882-14 1.988-14 4.251-15 1.151-19
 C5H12,i-pentane 2.843-14 1.966-14 4.270-15 1.361-19
 CH3C(CH3)2CH3   1.664-15 1.152-15 2.540-16 1.035-20
 C6H5,phenyl     4.613-15 2.939-15 2.065-16 2.154-23
 C6H5O,phenoxy   3.453-16 2.294-16 2.549-17 2.380-23
 C6H6            3.111-10 2.379-10 5.849-11 8.330-15
 C6H5OH,phenol   1.565-13 1.126-13 2.272-14 6.016-19
 C6H10,cyclo-    3.596-16 2.416-16 3.675-17 1.863-22
 C6H12,1-hexene  2.887-16 1.819-16 2.169-17 1.728-23
 C7H7,benzyl     1.279-14 8.209-15 7.213-16 2.171-22
 C7H8            2.511-12 1.787-12 3.299-13 6.455-18
 C7H8O,cresol-mx 1.016-15 6.812-16 1.037-16 3.920-22
 C8H8,styrene    1.955-14 1.266-14 1.280-15 7.355-22
 C8H10,ethylbenz 3.112-15 2.031-15 2.556-16 3.991-22
 C10H8,naphthale 8.525-16 5.511-16 5.508-17 2.999-23
 *H              1.336 -6 1.149 -6 3.923 -7 8.914-10
 HCO             8.520 -8 7.003 -8 2.149 -8 1.367-11
 HCCO            2.433-11 1.763-11 2.422-12 1.373-17
 *H2             4.1805-1 4.1881-1 4.1167-1 3.8110-1
 HCHO,formaldehy 8.0827-6 7.2607-6 4.2822-6 1.0936-7
 HCOOH           5.9141-7 5.4197-7 4.3951-7 4.6402-8
 H2O             2.7240-2 2.7565-2 3.4810-2 7.7983-2
 H2O2            1.014-15 7.462-16 1.489-16 3.917-21
 *O              7.256-15 5.149-15 5.690-16 1.134-21
 *OH             3.118 -9 2.562 -9 7.855-10 5.161-13
 *O2             2.194-16 1.578-16 2.294-17 1.287-22
 C(gr)           1.2016-1 1.2162-1 1.3346-1 2.3403-1

  * THERMODYNAMIC PROPERTIES FITTED TO 20000.K

 NOTE. WEIGHT FRACTION OF FUEL IN TOTAL FUELS AND OF OXIDANT IN TOTAL OXIDANTS

              THEORETICAL ROCKET PERFORMANCE ASSUMING EQUILIBRIUM

            COMPOSITION DURING EXPANSION FROM FINITE AREA COMBUSTOR

 Pin =  1469.6 PSIA
 Ac/At =  2.0000      Pinj/Pinf =  1.053593
 CASE = test___________

             REACTANT                    WT FRACTION      ENERGY      TEMP
                                          (SEE NOTE)     KJ/KG-MOL      K  
 FUEL        RP-1                         1.0000000    -24717.700    298.150
 OXIDANT     O2(L)                        1.0000000    -12979.000     90.170

 O/F=    0.85142  %FUEL= 54.012696  R,EQ.RATIO= 4.000000  PHI,EQ.RATIO= 4.000000

                 INJECTOR  COMB END  THROAT     EXIT
 Pinj/P            1.0000   1.1164   1.8560   53.915
 P, BAR            101.33   90.757   54.594   1.8794
 T, K             1507.05  1490.06  1390.71   996.51
 RHO, KG/CU M    1.3421 1 1.2154 1 7.9381 0 4.2108-1
 H, KJ/KG        -1141.77 -1185.25 -1549.42 -3405.41
 U, KJ/KG        -1896.77 -1932.00 -2237.18 -3851.73
 G, KJ/KG        -18700.8 -18585.4 -17789.5 -15042.2
 S, KJ/(KG)(K)    11.6513  11.6775  11.6775  11.6775

 M, (1/n)          16.597   16.591   16.813   18.564
 MW, MOL WT        14.421   14.391   14.381   14.031
 (dLV/dLP)t      -1.07253 -1.07261 -1.08106 -1.10874
 (dLV/dLT)p        1.6690   1.6806   1.8420   2.7197
 Cp, KJ/(KG)(K)    5.7926   5.8980   7.0651  15.2704
 GAMMAs            1.2025   1.2010   1.1854   1.1213
 SON VEL,M/SEC      952.8    947.0    902.9    707.4
 MACH NUMBER        0.000    0.311    1.000    3.008

 PERFORMANCE PARAMETERS

 Ae/At                      2.0000   1.0000   8.0000
 CSTAR, M/SEC               1341.8   1341.8   1341.8
 CF                         0.2198   0.6730   1.5858
 Ivac, M/SEC                2827.3   1664.6   2337.5
 Isp, M/SEC                  294.9    902.9   2127.7

 MOLE FRACTIONS

 CH2             7.650-12 5.409-12 5.827-13 1.030-18
 CH3             2.8398-6 2.3848-6 8.3021-7 1.3385-9
 CH2OH           3.245-10 2.545-10 6.881-11 1.470-14
 CH3O            1.464-11 1.110-11 2.428-12 1.575-16
 CH4             5.0203-2 4.9089-2 4.8754-2 3.5479-2
 CH3OH           3.5411-7 3.1308-7 1.9644-7 5.4162-9
 *CO             3.6606-1 3.6425-1 3.4770-1 2.0124-1
 *CO2            9.7632-3 1.0080-2 1.4581-2 6.1375-2
 COOH            9.053-10 7.538-10 3.028-10 5.509-13
 C2H             2.209-14 1.398-14 6.881-16 1.355-23
 C2H2,acetylene  4.072 -6 3.332 -6 9.065 -7 3.939-10
 C2H2,vinylidene 1.083-11 7.511-12 7.163-13 5.937-19
 CH2CO,ketene    3.2164-6 2.7301-6 1.1219-6 3.3361-9
 O(CH)2O         1.182-11 9.312-12 2.859-12 9.413-16
 HO(CO)2OH       1.803-15 1.468-15 8.004-16 2.914-18
 C2H3,vinyl      6.074-10 4.450-10 6.518-11 6.069-16
 CH3CO,acetyl    1.921 -9 1.494 -9 3.832-10 6.202-14
 C2H4            5.2766-5 4.6017-5 2.2097-5 2.0926-7
 C2H4O,ethylen-o 1.979-12 1.524-12 4.000-13 6.484-17
 CH3CHO,ethanal  2.510 -7 2.146 -7 1.090 -7 8.669-10
 CH3COOH         3.451 -9 3.001 -9 2.038 -9 5.877-11
 OHCH2COOH       8.642-14 6.855-14 3.117-14 5.190-17
 C2H5            1.291 -8 1.008 -8 2.605 -9 5.406-13
 C2H6            2.1123-5 1.8854-5 1.2369-5 5.6887-7
 C2H5OH          1.319 -9 1.083 -9 5.025-10 1.785-12
 CH3OCH3         3.869-12 3.039-12 1.063-12 7.028-16
 C2O             2.524-13 1.737-13 1.606-14 9.087-21
 C3H3,1-propynl  1.356-14 8.683-15 5.416-16 3.112-23
 C3H3,2-propynl  6.230-10 4.412-10 5.209-11 1.364-16
 C3H4,allene     1.283 -8 9.839 -9 2.087 -9 1.557-13
 C3H4,propyne    3.637 -8 2.805 -8 6.189 -9 5.783-13
 C3H4,cyclo-     1.042-11 7.389-12 9.593-13 3.900-18
 C3H5,allyl      1.349 -9 1.005 -9 1.934-10 7.246-15
 C3H6,propylene  2.994 -7 2.429 -7 8.694 -8 1.095-10
 C3H6,cyclo-     5.325-10 4.186-10 1.228-10 4.901-14
 C3H6O,propylox  9.828-15 7.086-15 1.442-15 3.953-20
 C3H6O,acetone   8.000-10 6.480-10 2.752-10 5.708-13
 C3H6O,propanal  2.524-10 1.976-10 6.781-11 4.070-14
 C3H7,n-propyl   1.475-11 1.056-11 1.856-12 3.001-17
 C3H7,i-propyl   1.529-11 1.106-11 2.083-12 4.960-17
 C3H8            2.547 -8 2.089 -8 9.457 -9 3.701-11
 C3H8O,1propanol 1.459-12 1.103-12 3.571-13 1.139-16
 C3H8O,2propanol 1.743-12 1.333-12 4.650-13 2.359-16
 C3O2            3.699-10 2.899-10 7.307-11 9.592-15
 C4H2,butadiyne  1.524-11 1.016-11 7.555-13 1.475-19
 C4H4,1,3-cyclo- 2.505-15 1.611-15 1.121-16 1.128-23
 C4H6,butadiene  1.299 -9 9.625-10 1.941-10 8.533-15
 C4H6,1butyne    4.718-11 3.342-11 5.068-12 3.929-17
 C4H6,2butyne    5.891-11 4.265-11 7.424-12 1.281-16
 C4H6,cyclo-     1.371-12 9.809-13 1.583-13 1.823-18
 C4H8,1-butene   3.365-10 2.509-10 6.211-11 6.716-15
 C4H8,cis2-buten 1.661-10 1.251-10 3.297-11 5.086-15
 C4H8,tr2-butene 1.867-10 1.407-10 3.714-11 5.867-15
 C4H8,isobutene  2.273-10 1.721-10 4.689-11 8.946-15
 C4H8,cyclo-     9.832-14 7.151-14 1.513-14 6.648-19
 C4H9,n-butyl    4.767-14 3.170-14 4.122-15 8.583-21
 C4H9,i-butyl    3.055-14 2.047-14 2.797-15 7.850-21
 C4H9,s-butyl    3.221-14 2.144-14 2.809-15 5.963-21
 C4H9,t-butyl    1.153-14 7.859-15 1.196-15 6.052-21
 C4H10,n-butane  3.110-11 2.342-11 7.275-12 2.354-15
 C4H10,isobutane 1.168-11 8.864-12 2.891-12 1.257-15
 C5H6,1,3cyclo-  2.239-11 1.632-11 2.969-12 6.952-17
 C5H8,cyclo-     9.708-13 7.017-13 1.428-13 4.973-18
 C5H10,1-pentene 3.212-13 2.204-13 3.793-14 3.551-19
 C5H10,cyclo-    1.298-14 9.397-15 2.278-15 1.727-19
 C5H12,n-pentane 3.238-14 2.238-14 4.765-15 1.290-19
 C5H12,i-pentane 3.199-14 2.215-14 4.794-15 1.528-19
 CH3C(CH3)2CH3   1.874-15 1.300-15 2.857-16 1.166-20
 C6H5,phenyl     3.728-15 2.381-15 1.725-16 1.913-23
 C6H5O,phenoxy   3.059-16 2.036-16 2.298-17 2.199-23
 C6H6            2.974-10 2.277-10 5.653-11 8.231-15
 C6H5OH,phenol   1.525-13 1.099-13 2.227-14 5.916-19
 C6H10,cyclo-    3.668-16 2.469-16 3.779-17 1.952-22
 C6H12,1-hexene  3.043-16 1.921-16 2.299-17 1.859-23
 C7H7,benzyl     1.123-14 7.231-15 6.495-16 2.048-22
 C7H8            2.467-12 1.759-12 3.274-13 6.542-18
 C7H8O,cresol-mx 1.018-15 6.837-16 1.044-16 3.956-22
 C8H8,styrene    1.798-14 1.167-14 1.199-15 7.159-22
 C8H10,ethylbenz 3.109-15 2.033-15 2.581-16 4.123-22
 C10H8,naphthale 7.827-16 5.071-16 5.157-17 2.918-23
 *H              1.142 -6 9.838 -7 3.422 -7 8.069-10
 HCO             7.504 -8 6.173 -8 1.917 -8 1.236-11
 HCCO            1.960-11 1.423-11 2.001-12 1.176-17
 *H2             4.1388-1 4.1469-1 4.0779-1 3.7842-1
 HCHO,formaldehy 7.8813-6 7.0811-6 4.1743-6 1.0567-7
 HCOOH           6.2216-7 5.6993-7 4.5641-7 4.6262-8
 H2O             2.8893-2 2.9223-2 3.6482-2 7.9319-2
 H2O2            9.136-16 6.731-16 1.353-16 3.549-21
 *O              5.540-15 3.939-15 4.483-16 9.373-22
 *OH             2.745 -9 2.258 -9 7.006-10 4.670-13
 *O2             1.799-16 1.296-16 1.916-17 1.092-22
 C(gr)           1.3110-1 1.3259-1 1.4465-1 2.4417-1

  * THERMODYNAMIC PROPERTIES FITTED TO 20000.K

 NOTE. WEIGHT FRACTION OF FUEL IN TOTAL FUELS AND OF OXIDANT IN TOTAL OXIDANTS