

         NASA-GLENN CHEMICAL EQUILIBRIUM PROGRAM CEA2, FEBRUARY 5, 2004
                   BY  BONNIE MCBRIDE AND SANFORD GORDON
      REFS: NASA RP-1311, PART I, 1994 AND NASA RP-1311, PART II, 1996

 *******************************************************************************

  
 ### CEA analysis performed on Thu 25-Aug-2022 03:13:20
  
 # Problem Type: "Rocket" (Finite Area Combustor)
  
 prob case=test___________7178 ro equilibrium    fac
  
 !Contraction Ratio:
 ac/at=2
  
 # Pressure (1 value):
 p,bar= 101.325
 # Supersonic Area Ratio (1 value):
 supar= 3
  
 # Equivalence based on Fuel/Oxid. wt ratio (Eq 9.19*) (10 values):
 phi= 3.1, 3.2, 3.3, 3.4, 3.5, 3.6, 3.7, 3.8, 3.9, 4
  
 # You selected the following fuels and oxidizers:
 reac
 fuel RP-1             mole=100.0000
 oxid O2(L)            mole=100.0000
  
 # You selected these options for output:
 # short version of output
 output short
 # Proportions of any products will be expressed as Mole Fractions.
 # Heat will be expressed as siunits
 output siunits
 # Trace variable:
 output trace=1e-16
  
 # Input prepared by this script:/var/www/sites/cearun.grc.nasa.gov/cgi-bin/CEARU
 N/prepareInputFile.cgi
  
 ### IMPORTANT:  The following line is the end of your CEA input file!
 end

              THEORETICAL ROCKET PERFORMANCE ASSUMING EQUILIBRIUM

            COMPOSITION DURING EXPANSION FROM FINITE AREA COMBUSTOR

 Pin =  1469.6 PSIA
 Ac/At =  2.0000      Pinj/Pinf =  1.055163
 CASE = test___________

             REACTANT                       MOLES         ENERGY      TEMP
                                                         KJ/KG-MOL      K
 FUEL        RP-1                       100.0000000    -24717.700    298.150
 OXIDANT     O2(L)                      100.0000000    -12979.000     90.170

 O/F=    1.09860  %FUEL= 47.650769  R,EQ.RATIO= 3.100000  PHI,EQ.RATIO= 3.100000

                 INJECTOR  COMB END  THROAT     EXIT
 Pinj/P            1.0000   1.1200   1.8873   15.520
 P, BAR            101.33   90.468   53.688   6.5286
 T, K             1662.52  1640.51  1499.15  1152.18
 RHO, KG/CU M    1.1622 1 1.0514 1 6.9096 0 1.1681 0
 H, KJ/KG        -1055.06 -1106.70 -1533.26 -2914.17
 U, KJ/KG        -1926.92 -1967.16 -2310.27 -3473.07
 G, KJ/KG        -21066.1 -20899.2 -19620.2 -16814.9
 S, KJ/(KG)(K)    12.0366  12.0648  12.0648  12.0648

 M, (1/n)          15.855   15.852   16.042   17.140
 MW, MOL WT        15.658   15.638   15.695   15.689
 (dLV/dLP)t      -1.03827 -1.03825 -1.04761 -1.08833
 (dLV/dLT)p        1.3097   1.3158   1.4534   2.2422
 Cp, KJ/(KG)(K)    3.7173   3.7675   4.6560  11.1105
 GAMMAs            1.2558   1.2544   1.2308   1.1510
 SON VEL,M/SEC     1046.4   1038.9    977.9    802.1
 MACH NUMBER        0.000    0.309    1.000    2.404

 PERFORMANCE PARAMETERS

 Ae/At                      2.0000   1.0000   3.0000
 CSTAR, M/SEC               1421.1   1421.1   1421.1
 CF                         0.2261   0.6882   1.3569
 Ivac, M/SEC                2999.0   1772.5   2218.1
 Isp, M/SEC                  321.3    978.0   1928.3

 MOLE FRACTIONS

 *CH             7.804-15 4.643-15 9.794-17 1.495-22
 CH2             1.456-10 1.006-10 6.998-12 6.053-16
 CH3             8.3562-6 6.9401-6 2.0502-6 2.4532-8
 CH2OH           7.800-10 6.053-10 1.466-10 6.240-13
 CH3O            4.668-11 3.490-11 6.512-12 1.167-14
 CH4             2.6994-2 2.6369-2 2.8342-2 2.8218-2
 CH3OH           2.0232-7 1.7853-7 1.2322-7 1.8204-8
 *CO             4.8965-1 4.8842-1 4.7667-1 3.8224-1
 *CO2            4.5134-3 4.7030-3 8.3504-3 3.9777-2
 COOH            1.549 -9 1.284 -9 5.110-10 1.151-11
 C2H             1.646-12 1.009-12 2.634-14 8.450-20
 C2H2,acetylene  2.3399-5 1.8882-5 3.9854-6 1.6766-8
 C2H2,vinylidene 2.403-10 1.627-10 9.818-12 5.036-16
 CH2CO,ketene    6.3809-6 5.3815-6 2.0674-6 5.0243-8
 O(CH)2O         2.025-11 1.584-11 4.740-12 3.544-14
 HO(CO)2OH       5.125-16 4.193-16 3.061-16 2.712-17
 C2H3,vinyl      5.471 -9 3.929 -9 4.117-10 1.302-13
 CH3CO,acetyl    4.968 -9 3.818 -9 8.645-10 2.989-12
 C2H4            7.2300-5 6.2564-5 2.8255-5 1.3238-6
 C2H4O,ethylen-o 3.509-12 2.672-12 6.461-13 2.504-15
 CH3CHO,ethanal  1.8865-7 1.6063-7 8.6001-8 5.2598-9
 CH3COOH         1.059 -9 9.217-10 7.696-10 1.680-10
 OHCH2COOH       2.639-14 2.091-14 1.193-14 5.054-16
 C2H5            2.782 -8 2.141 -8 4.787 -9 1.697-11
 C2H6            9.6355-6 8.5605-6 6.0737-6 1.0900-6
 C2H5OH          5.561-10 4.543-10 2.357-10 1.021-11
 CH3OCH3         2.351-12 1.831-12 6.772-13 8.973-15
 C2O             6.938-12 4.671-12 2.772-13 1.260-17
 C3H3,1-propynl  3.677-13 2.289-13 8.637-15 7.577-20
 C3H3,2-propynl  7.419 -9 5.139 -9 4.157-10 5.342-14
 C3H4,allene     5.065 -8 3.820 -8 6.475 -9 9.896-12
 C3H4,propyne    1.363 -7 1.035 -7 1.840 -8 3.307-11
 C3H4,cyclo-     7.759-11 5.388-11 5.070-12 9.917-16
 C3H5,allyl      4.273 -9 3.128 -9 4.895-10 5.106-13
 C3H6,propylene  2.9906-7 2.3997-7 8.2381-8 1.1659-9
 C3H6,cyclo-     6.901-10 5.352-10 1.444-10 8.981-13
 C3H6O,propylox  1.207-14 8.579-15 1.653-15 2.289-18
 C3H6O,acetone   3.774-10 3.038-10 1.420-10 4.235-12
 C3H6O,propanal  1.573-10 1.221-10 4.411-11 5.424-13
 C3H7,n-propyl   2.609-11 1.833-11 2.792-12 2.043-15
 C3H7,i-propyl   2.469-11 1.756-11 2.907-12 2.819-15
 C3H8            9.363 -9 7.613 -9 3.741 -9 1.474-10
 C3H8O,1propanol 4.878-13 3.655-13 1.333-13 1.324-15
 C3H8O,2propanol 5.303-13 4.022-13 1.601-13 2.188-15
 C3O2            1.638 -9 1.273 -9 2.785-10 8.743-13
 C4H2,butadiyne  4.681-10 3.038-10 1.357-11 2.477-16
 C4H4,1,3-cyclo- 4.178-14 2.613-14 1.165-15 1.672-20
 C4H6,butadiene  2.741 -9 1.995 -9 3.428-10 4.453-13
 C4H6,1butyne    1.432-10 9.943-11 1.219-11 4.727-15
 C4H6,2butyne    1.494-10 1.062-10 1.538-11 1.057-14
 C4H6,cyclo-     3.853-12 2.702-12 3.559-13 1.809-16
 C4H8,1-butene   2.701-10 1.984-10 4.731-11 1.480-13
 C4H8,cis2-buten 1.227-10 9.115-11 2.346-11 9.498-14
 C4H8,tr2-butene 1.378-10 1.024-10 2.637-11 1.080-13
 C4H8,isobutene  1.609-10 1.202-10 3.217-11 1.506-13
 C4H8,cyclo-     9.701-14 6.937-14 1.366-14 2.242-17
 C4H9,n-butyl    6.211-14 4.042-14 4.632-15 9.959-19
 C4H9,i-butyl    3.738-14 2.453-14 2.980-15 7.888-19
 C4H9,s-butyl    4.149-14 2.705-14 3.131-15 6.886-19
 C4H9,t-butyl    1.222-14 8.167-15 1.133-15 4.641-19
 C4H10,n-butane  9.289-12 6.905-12 2.333-12 1.972-14
 C4H10,isobutane 3.278-12 2.457-12 8.795-13 9.136-15
 C5H6,1,3cyclo-  5.386-11 3.855-11 5.862-12 4.916-15
 C5H8,cyclo-     1.008-12 7.161-13 1.345-13 1.871-16
 C5H10,1-pentene 2.049-13 1.380-13 2.308-14 1.620-17
 C5H10,cyclo-    5.367-15 3.824-15 9.562-16 2.881-18
 C5H12,n-pentane 7.898-15 5.363-15 1.240-15 2.255-18
 C5H12,i-pentane 7.711-15 5.241-15 1.227-15 2.445-18
 CH3C(CH3)2CH3   4.527-16 3.071-16 7.190-17 1.619-19
 C6H2            9.983-15 5.217-15 4.971-17 4.087-24
 C6H5,phenyl     4.170-14 2.591-14 1.260-15 2.172-20
 C6H5O,phenoxy   1.141-15 7.438-16 6.804-17 7.847-21
 C6H6            4.775-10 3.602-10 7.967-11 2.444-13
 C6H5OH,phenol   1.879-13 1.335-13 2.565-14 3.478-17
 C6H10,cyclo-    2.760-16 1.819-16 2.612-17 1.163-20
 C6H12,1-hexene  1.544-16 9.540-17 1.118-17 1.758-21
 C7H7,benzyl     4.762-14 2.987-14 2.024-15 9.023-20
 C7H8            2.864-12 2.005-12 3.397-13 3.224-16
 C7H8O,cresol-mx 9.026-16 5.957-16 8.805-17 3.779-20
 C8H8,styrene    4.502-14 2.853-14 2.370-15 1.875-19
 C8H10,ethylbenz 2.954-15 1.889-15 2.185-16 4.343-20
 C10H8,naphthale 1.990-15 1.259-15 1.031-16 7.825-21
 *H              6.8381-6 5.8142-6 1.5704-6 1.8789-8
 HCO             3.031 -7 2.470 -7 6.523 -8 4.812-10
 HCCO            2.208-10 1.575-10 1.608-11 4.292-15
 *H2             4.5265-1 4.5307-1 4.4480-1 4.1355-1
 HCHO,formaldehy 9.8084-6 8.7886-6 5.2008-6 5.7370-7
 HCOOH           3.0980-7 2.8444-7 2.6749-7 1.1276-7
 H2O             1.3616-2 1.3842-2 2.0139-2 5.1541-2
 H2O2            2.707-15 1.972-15 3.552-16 4.478-19
 *O              1.174-13 8.173-14 6.176-15 6.882-19
 *OH             1.115 -8 9.077 -9 2.386 -9 1.777-11
 *O2             1.596-15 1.132-15 1.303-16 4.421-20
 C(gr)           1.2434-2 1.3481-2 2.1643-2 8.4664-2

  * THERMODYNAMIC PROPERTIES FITTED TO 20000.K

              THEORETICAL ROCKET PERFORMANCE ASSUMING EQUILIBRIUM

            COMPOSITION DURING EXPANSION FROM FINITE AREA COMBUSTOR

 Pin =  1469.6 PSIA
 Ac/At =  2.0000      Pinj/Pinf =  1.054925
 CASE = test___________

             REACTANT                       MOLES         ENERGY      TEMP
                                                         KJ/KG-MOL      K
 FUEL        RP-1                       100.0000000    -24717.700    298.150
 OXIDANT     O2(L)                      100.0000000    -12979.000     90.170

 O/F=    1.06427  %FUEL= 48.443259  R,EQ.RATIO= 3.200000  PHI,EQ.RATIO= 3.200000

                 INJECTOR  COMB END  THROAT     EXIT
 Pinj/P            1.0000   1.1195   1.8824   15.421
 P, BAR            101.33   90.512   53.828   6.5706
 T, K             1638.57  1617.35  1483.02  1147.19
 RHO, KG/CU M    1.1846 1 1.0719 1 7.0380 0 1.1864 0
 H, KJ/KG        -1065.87 -1116.31 -1533.84 -2895.78
 U, KJ/KG        -1921.23 -1960.74 -2298.66 -3449.61
 G, KJ/KG        -20715.0 -20556.1 -19359.1 -16684.5
 S, KJ/(KG)(K)    11.9916  12.0196  12.0196  12.0196

 M, (1/n)          15.928   15.925   16.122   17.222
 MW, MOL WT        15.477   15.457   15.506   15.475
 (dLV/dLP)t      -1.04229 -1.04229 -1.05177 -1.09087
 (dLV/dLT)p        1.3492   1.3561   1.4998   2.2782
 Cp, KJ/(KG)(K)    3.9420   3.9995   4.9446  11.3567
 GAMMAs            1.2481   1.2465   1.2237   1.1491
 SON VEL,M/SEC     1033.2   1026.0    967.4    797.7
 MACH NUMBER        0.000    0.310    1.000    2.398

 PERFORMANCE PARAMETERS

 Ae/At                      2.0000   1.0000   3.0000
 CSTAR, M/SEC               1410.6   1410.6   1410.6
 CF                         0.2252   0.6858   1.3562
 Ivac, M/SEC                2976.3   1758.0   2202.6
 Isp, M/SEC                  317.6    967.4   1913.1

 MOLE FRACTIONS

 *CH             4.113-15 2.456-15 5.748-17 1.122-22
 CH2             9.627-11 6.667-11 4.962-12 5.043-16
 CH3             7.2005-6 5.9880-6 1.8131-6 2.3069-8
 CH2OH           6.949-10 5.401-10 1.330-10 5.883-13
 CH3O            3.994-11 2.992-11 5.722-12 1.083-14
 CH4             2.9595-2 2.8917-2 3.0675-2 2.9673-2
 CH3OH           2.2102-7 1.9512-7 1.3268-7 1.8874-8
 *CO             4.7327-1 4.7195-1 4.5934-1 3.6507-1
 *CO2            5.0931-3 5.3025-3 9.1347-3 4.0166-2
 COOH            1.453 -9 1.206 -9 4.810-10 1.081-11
 C2H             8.962-13 5.514-13 1.588-14 6.433-20
 C2H2,acetylene  1.8328-5 1.4813-5 3.2505-6 1.5027-8
 C2H2,vinylidene 1.555-10 1.056-10 6.835-12 4.154-16
 CH2CO,ketene    5.8381-6 4.9280-6 1.9136-6 4.7573-8
 O(CH)2O         1.900-11 1.488-11 4.475-12 3.357-14
 HO(CO)2OH       6.258-16 5.120-16 3.583-16 2.812-17
 C2H3,vinyl      4.024 -9 2.897 -9 3.194-10 1.143-13
 CH3CO,acetyl    4.379 -9 3.371 -9 7.782-10 2.807-12
 C2H4            6.9457-5 6.0161-5 2.7403-5 1.3141-6
 C2H4O,ethylen-o 3.264-12 2.489-12 6.096-13 2.426-15
 CH3CHO,ethanal  1.9823-7 1.6891-7 8.9686-8 5.3644-9
 CH3COOH         1.269 -9 1.104 -9 8.938-10 1.795-10
 OHCH2COOH       3.177-14 2.519-14 1.389-14 5.355-16
 C2H5            2.508 -8 1.934 -8 4.416 -9 1.651-11
 C2H6            1.0827-5 9.6262-6 6.7378-6 1.1747-6
 C2H5OH          6.348-10 5.191-10 2.645-10 1.096-11
 CH3OCH3         2.548-12 1.988-12 7.282-13 9.414-15
 C2O             4.370-12 2.950-12 1.876-13 1.002-17
 C3H3,1-propynl  2.314-13 1.445-13 5.890-15 6.220-20
 C3H3,2-propynl  5.245 -9 3.642 -9 3.122-10 4.613-14
 C3H4,allene     4.188 -8 3.165 -8 5.550 -9 9.212-12
 C3H4,propyne    1.135 -7 8.637 -8 1.586 -8 3.088-11
 C3H4,cyclo-     5.864-11 4.082-11 4.034-12 8.882-16
 C3H5,allyl      3.647 -9 2.675 -9 4.318-10 4.857-13
 C3H6,propylene  3.0075-7 2.4168-7 8.3388-8 1.1979-9
 C3H6,cyclo-     6.687-10 5.195-10 1.418-10 9.089-13
 C3H6O,propylox  1.184-14 8.432-15 1.638-15 2.302-18
 C3H6O,acetone   4.240-10 3.417-10 1.573-10 4.510-12
 C3H6O,propanal  1.698-10 1.320-10 4.729-11 5.684-13
 C3H7,n-propyl   2.421-11 1.705-11 2.651-12 2.043-15
 C3H7,i-propyl   2.321-11 1.654-11 2.790-12 2.833-15
 C3H8            1.086 -8 8.840 -9 4.281 -9 1.634-10
 C3H8O,1propanol 5.760-13 4.322-13 1.546-13 1.462-15
 C3H8O,2propanol 6.345-13 4.819-13 1.878-13 2.432-15
 C3O2            1.342 -9 1.044 -9 2.339-10 7.694-13
 C4H2,butadiyne  2.892-10 1.883-10 9.094-12 2.004-16
 C4H4,1,3-cyclo- 2.817-14 1.767-14 8.436-16 1.426-20
 C4H6,butadiene  2.478 -9 1.808 -9 3.180-10 4.376-13
 C4H6,1butyne    1.230-10 8.564-11 1.084-11 4.540-15
 C4H6,2butyne    1.316-10 9.381-11 1.396-11 1.026-14
 C4H6,cyclo-     3.346-12 2.352-12 3.193-13 1.747-16
 C4H8,1-butene   2.804-10 2.064-10 4.941-11 1.565-13
 C4H8,cis2-buten 1.289-10 9.594-11 2.474-11 1.009-13
 C4H8,tr2-butene 1.448-10 1.077-10 2.782-11 1.148-13
 C4H8,isobutene  1.701-10 1.273-10 3.410-11 1.604-13
 C4H8,cyclo-     9.779-14 7.009-14 1.393-14 2.342-17
 C4H9,n-butyl    6.023-14 3.931-14 4.585-15 1.030-18
 C4H9,i-butyl    3.658-14 2.407-14 2.971-15 8.194-19
 C4H9,s-butyl    4.031-14 2.635-14 3.103-15 7.127-19
 C4H9,t-butyl    1.220-14 8.179-15 1.149-15 4.858-19
 C4H10,n-butane  1.110-11 8.270-12 2.752-12 2.250-14
 C4H10,isobutane 3.953-12 2.968-12 1.045-12 1.046-14
 C5H6,1,3cyclo-  4.782-11 3.430-11 5.356-12 4.791-15
 C5H8,cyclo-     1.009-12 7.183-13 1.364-13 1.949-16
 C5H10,1-pentene 2.200-13 1.486-13 2.490-14 1.763-17
 C5H10,cyclo-    6.125-15 4.374-15 1.086-15 3.224-18
 C5H12,n-pentane 9.721-15 6.617-15 1.507-15 2.646-18
 C5H12,i-pentane 9.501-15 6.475-15 1.494-15 2.876-18
 CH3C(CH3)2CH3   5.567-16 3.789-16 8.769-17 1.911-19
 C6H2            4.870-15 2.557-15 2.742-17 2.988-24
 C6H5,phenyl     2.977-14 1.856-14 9.589-16 1.913-20
 C6H5O,phenoxy   9.554-16 6.248-16 5.903-17 7.321-21
 C6H6            4.490-10 3.393-10 7.630-11 2.441-13
 C6H5OH,phenol   1.843-13 1.312-13 2.540-14 3.497-17
 C6H10,cyclo-    2.893-16 1.912-16 2.767-17 1.256-20
 C6H12,1-hexene  1.715-16 1.063-16 1.246-17 1.969-21
 C7H7,benzyl     3.903-14 2.456-14 1.736-15 8.564-20
 C7H8            2.822-12 1.981-12 3.399-13 3.333-16
 C7H8O,cresol-mx 9.282-16 6.141-16 9.114-17 3.937-20
 C8H8,styrene    3.978-14 2.528-14 2.167-15 1.851-19
 C8H10,ethylbenz 2.997-15 1.923-15 2.251-16 4.617-20
 C10H8,naphthale 1.755-15 1.113-15 9.413-17 7.718-21
 *H              5.3187-6 4.5289-6 1.2720-6 1.6706-8
 HCO             2.506 -7 2.045 -7 5.540 -8 4.330-10
 HCCO            1.579-10 1.129-10 1.212-11 3.629-15
 *H2             4.4837-1 4.4882-1 4.4053-1 4.1036-1
 HCHO,formaldehy 9.5864-6 8.5935-6 5.0837-6 5.5886-7
 HCOOH           3.4615-7 3.1784-7 2.9189-7 1.1522-7
 H2O             1.5270-2 1.5516-2 2.2052-2 5.3262-2
 H2O2            2.350-15 1.715-15 3.145-16 4.101-19
 *O              7.667-14 5.351-14 4.313-15 5.567-19
 *OH             9.208 -9 7.507 -9 2.026 -9 1.600-11
 *O2             1.185-15 8.424-16 1.009-16 3.732-20
 C(gr)           2.8277-2 2.9391-2 3.8223-2 1.0146-1

  * THERMODYNAMIC PROPERTIES FITTED TO 20000.K

              THEORETICAL ROCKET PERFORMANCE ASSUMING EQUILIBRIUM

            COMPOSITION DURING EXPANSION FROM FINITE AREA COMBUSTOR

 Pin =  1469.6 PSIA
 Ac/At =  2.0000      Pinj/Pinf =  1.054708
 CASE = test___________

             REACTANT                       MOLES         ENERGY      TEMP
                                                         KJ/KG-MOL      K
 FUEL        RP-1                       100.0000000    -24717.700    298.150
 OXIDANT     O2(L)                      100.0000000    -12979.000     90.170

 O/F=    1.03202  %FUEL= 49.212112  R,EQ.RATIO= 3.300000  PHI,EQ.RATIO= 3.300000

                 INJECTOR  COMB END  THROAT     EXIT
 Pinj/P            1.0000   1.1190   1.8779   15.331
 P, BAR            101.33   90.552   53.956   6.6091
 T, K             1616.81  1596.30  1468.24  1142.34
 RHO, KG/CU M    1.2063 1 1.0917 1 7.1623 0 1.2041 0
 H, KJ/KG        -1076.34 -1125.69 -1534.86 -2878.77
 U, KJ/KG        -1916.32 -1955.16 -2288.20 -3427.63
 G, KJ/KG        -20392.5 -20241.0 -19116.8 -16558.0
 S, KJ/(KG)(K)    11.9471  11.9748  11.9748  11.9748

 M, (1/n)          16.004   16.001   16.205   17.305
 MW, MOL WT        15.311   15.289   15.331   15.275
 (dLV/dLP)t      -1.04632 -1.04634 -1.05586 -1.09328
 (dLV/dLT)p        1.3895   1.3971   1.5459   2.3121
 Cp, KJ/(KG)(K)    4.1730   4.2376   5.2319  11.5850
 GAMMAs            1.2408   1.2392   1.2173   1.1473
 SON VEL,M/SEC     1020.9   1013.8    957.6    793.6
 MACH NUMBER        0.000    0.310    1.000    2.393

 PERFORMANCE PARAMETERS

 Ae/At                      2.0000   1.0000   3.0000
 CSTAR, M/SEC               1400.7   1400.7   1400.7
 CF                         0.2243   0.6837   1.3555
 Ivac, M/SEC                2954.6   1744.3   2187.7
 Isp, M/SEC                  314.1    957.6   1898.6

 MOLE FRACTIONS

 *CH             2.259-15 1.355-15 3.488-17 8.473-23
 CH2             6.534-11 4.537-11 3.593-12 4.216-16
 CH3             6.2587-6 5.2117-6 1.6147-6 2.1705-8
 CH2OH           6.225-10 4.845-10 1.212-10 5.543-13
 CH3O            3.445-11 2.585-11 5.058-12 1.005-14
 CH4             3.2216-2 3.1482-2 3.3002-2 3.1138-2
 CH3OH           2.3951-7 2.1152-7 1.4186-7 1.9514-8
 *CO             4.5766-1 4.5626-1 4.4287-1 3.4893-1
 *CO2            5.6864-3 5.9144-3 9.9048-3 4.0508-2
 COOH            1.365 -9 1.133 -9 4.531-10 1.015-11
 C2H             5.075-13 3.134-13 9.881-15 4.924-20
 C2H2,acetylene  1.4575-5 1.1799-5 2.6838-6 1.3495-8
 C2H2,vinylidene 1.034-10 7.043-11 4.866-12 3.438-16
 CH2CO,ketene    5.3621-6 4.5300-6 1.7763-6 4.5040-8
 O(CH)2O         1.785-11 1.399-11 4.227-12 3.175-14
 HO(CO)2OH       7.503-16 6.139-16 4.127-16 2.902-17
 C2H3,vinyl      3.016 -9 2.177 -9 2.517-10 1.006-13
 CH3CO,acetyl    3.884 -9 2.994 -9 7.038-10 2.636-12
 C2H4            6.6819-5 5.7932-5 2.6602-5 1.3031-6
 C2H4O,ethylen-o 3.044-12 2.325-12 5.761-13 2.346-15
 CH3CHO,ethanal  2.0715-7 1.7662-7 9.3066-8 5.4574-9
 CH3COOH         1.497 -9 1.303 -9 1.025 -9 1.909-10
 OHCH2COOH       3.763-14 2.985-14 1.596-14 5.645-16
 C2H5            2.273 -8 1.756 -8 4.090 -9 1.605-11
 C2H6            1.2056-5 1.0725-5 7.4162-6 1.2615-6
 C2H5OH          7.166-10 5.864-10 2.940-10 1.170-11
 CH3OCH3         2.741-12 2.140-12 7.775-13 9.837-15
 C2O             2.832-12 1.917-12 1.300-13 7.996-18
 C3H3,1-propynl  1.499-13 9.395-14 4.112-15 5.122-20
 C3H3,2-propynl  3.789 -9 2.638 -9 2.386-10 3.992-14
 C3H4,allene     3.503 -8 2.652 -8 4.799 -9 8.577-12
 C3H4,propyne    9.560 -8 7.287 -8 1.380 -8 2.883-11
 C3H4,cyclo-     4.509-11 3.147-11 3.254-12 7.963-16
 C3H5,allyl      3.140 -9 2.309 -9 3.835-10 4.616-13
 C3H6,propylene  3.0189-7 2.4293-7 8.4238-8 1.2276-9
 C3H6,cyclo-     6.483-10 5.046-10 1.393-10 9.176-13
 C3H6O,propylox  1.160-14 8.277-15 1.620-15 2.308-18
 C3H6O,acetone   4.716-10 3.804-10 1.726-10 4.784-12
 C3H6O,propanal  1.820-10 1.417-10 5.036-11 5.931-13
 C3H7,n-propyl   2.254-11 1.591-11 2.522-12 2.037-15
 C3H7,i-propyl   2.187-11 1.562-11 2.680-12 2.840-15
 C3H8            1.245 -8 1.015 -8 4.850 -9 1.803-10
 C3H8O,1propanol 6.708-13 5.040-13 1.771-13 1.606-15
 C3H8O,2propanol 7.482-13 5.690-13 2.174-13 2.687-15
 C3O2            1.111 -9 8.655-10 1.981-10 6.779-13
 C4H2,butadiyne  1.842-10 1.203-10 6.249-12 1.628-16
 C4H4,1,3-cyclo- 1.947-14 1.226-14 6.230-16 1.218-20
 C4H6,butadiene  2.253 -9 1.647 -9 2.962-10 4.293-13
 C4H6,1butyne    1.066-10 7.438-11 9.694-12 4.355-15
 C4H6,2butyne    1.168-10 8.343-11 1.273-11 9.939-15
 C4H6,cyclo-     2.928-12 2.064-12 2.882-13 1.684-16
 C4H8,1-butene   2.899-10 2.138-10 5.139-11 1.648-13
 C4H8,cis2-buten 1.348-10 1.005-10 2.596-11 1.067-13
 C4H8,tr2-butene 1.514-10 1.128-10 2.920-11 1.215-13
 C4H8,isobutene  1.788-10 1.340-10 3.595-11 1.702-13
 C4H8,cyclo-     9.836-14 7.065-14 1.417-14 2.438-17
 C4H9,n-butyl    5.843-14 3.824-14 4.535-15 1.062-18
 C4H9,i-butyl    3.577-14 2.360-14 2.959-15 8.474-19
 C4H9,s-butyl    3.916-14 2.567-14 3.072-15 7.344-19
 C4H9,t-butyl    1.216-14 8.175-15 1.162-15 5.063-19
 C4H10,n-butane  1.309-11 9.767-12 3.206-12 2.549-14
 C4H10,isobutane 4.699-12 3.534-12 1.226-12 1.190-14
 C5H6,1,3cyclo-  4.272-11 3.071-11 4.916-12 4.662-15
 C5H8,cyclo-     1.008-12 7.192-13 1.379-13 2.023-16
 C5H10,1-pentene 2.347-13 1.589-13 2.669-14 1.908-17
 C5H10,cyclo-    6.916-15 4.949-15 1.222-15 3.585-18
 C5H12,n-pentane 1.178-14 8.036-15 1.806-15 3.080-18
 C5H12,i-pentane 1.152-14 7.874-15 1.793-15 3.355-18
 CH3C(CH3)2CH3   6.744-16 4.605-16 1.054-16 2.237-19
 C6H2            2.488-15 1.313-15 1.570-17 2.197-24
 C6H5,phenyl     2.170-14 1.357-14 7.418-16 1.685-20
 C6H5O,phenoxy   8.078-16 5.296-16 5.155-17 6.821-21
 C6H6            4.232-10 3.204-10 7.318-11 2.432-13
 C6H5OH,phenol   1.805-13 1.287-13 2.510-14 3.504-17
 C6H10,cyclo-    3.017-16 1.999-16 2.916-17 1.349-20
 C6H12,1-hexene  1.887-16 1.172-16 1.376-17 2.189-21
 C7H7,benzyl     3.236-14 2.043-14 1.502-15 8.115-20
 C7H8            2.779-12 1.955-12 3.395-13 3.434-16
 C7H8O,cresol-mx 9.501-16 6.301-16 9.387-17 4.081-20
 C8H8,styrene    3.538-14 2.255-14 1.990-15 1.821-19
 C8H10,ethylbenz 3.032-15 1.951-15 2.311-16 4.883-20
 C10H8,naphthale 1.557-15 9.909-16 8.631-17 7.590-21
 *H              4.2034-6 3.5847-6 1.0438-6 1.4891-8
 HCO             2.094 -7 1.711 -7 4.745 -8 3.902-10
 HCCO            1.152-10 8.254-11 9.278-12 3.076-15
 *H2             4.4402-1 4.4451-1 4.3627-1 4.0719-1
 HCHO,formaldehy 9.3648-6 8.3982-6 4.9664-6 5.4406-7
 HCOOH           3.8285-7 3.5151-7 3.1571-7 1.1745-7
 H2O             1.6963-2 1.7227-2 2.3958-2 5.4945-2
 H2O2            2.053-15 1.500-15 2.797-16 3.754-19
 *O              5.141-14 3.597-14 3.076-15 4.520-19
 *OH             7.688 -9 6.276 -9 1.735 -9 1.443-11
 *O2             8.946-16 6.373-16 7.924-17 3.157-20
 C(gr)           4.3328-2 4.4506-2 5.3947-2 1.1728-1

  * THERMODYNAMIC PROPERTIES FITTED TO 20000.K

              THEORETICAL ROCKET PERFORMANCE ASSUMING EQUILIBRIUM

            COMPOSITION DURING EXPANSION FROM FINITE AREA COMBUSTOR

 Pin =  1469.6 PSIA
 Ac/At =  2.0000      Pinj/Pinf =  1.054506
 CASE = test___________

             REACTANT                       MOLES         ENERGY      TEMP
                                                         KJ/KG-MOL      K
 FUEL        RP-1                       100.0000000    -24717.700    298.150
 OXIDANT     O2(L)                      100.0000000    -12979.000     90.170

 O/F=    1.00167  %FUEL= 49.958371  R,EQ.RATIO= 3.400000  PHI,EQ.RATIO= 3.400000

                 INJECTOR  COMB END  THROAT     EXIT
 Pinj/P            1.0000   1.1185   1.8739   15.249
 P, BAR            101.33   90.589   54.073   6.6445
 T, K             1596.97  1577.11  1454.63  1137.62
 RHO, KG/CU M    1.2273 1 1.1109 1 7.2826 0 1.2214 0
 H, KJ/KG        -1086.52 -1134.84 -1536.26 -2862.99
 U, KJ/KG        -1912.09 -1950.30 -2278.75 -3406.98
 G, KJ/KG        -20095.4 -19950.6 -18890.8 -16435.4
 S, KJ/(KG)(K)    11.9031  11.9305  11.9305  11.9305

 M, (1/n)          16.083   16.080   16.289   17.387
 MW, MOL WT        15.156   15.133   15.167   15.089
 (dLV/dLP)t      -1.05033 -1.05036 -1.05985 -1.09556
 (dLV/dLT)p        1.4304   1.4387   1.5915   2.3439
 Cp, KJ/(KG)(K)    4.4078   4.4793   5.5157  11.7955
 GAMMAs            1.2340   1.2324   1.2114   1.1457
 SON VEL,M/SEC     1009.3   1002.5    948.4    789.5
 MACH NUMBER        0.000    0.310    1.000    2.388

 PERFORMANCE PARAMETERS

 Ae/At                      2.0000   1.0000   3.0000
 CSTAR, M/SEC               1391.2   1391.2   1391.2
 CF                         0.2235   0.6817   1.3549
 Ivac, M/SEC                2934.0   1731.3   2173.5
 Isp, M/SEC                  310.9    948.4   1884.9

 MOLE FRACTIONS

 *CH             1.289-15 7.761-16 2.181-17 6.433-23
 CH2             4.542-11 3.163-11 2.652-12 3.535-16
 CH3             5.4840-6 4.5726-6 1.4471-6 2.0432-8
 CH2OH           5.604-10 4.367-10 1.109-10 5.221-13
 CH3O            2.994-11 2.251-11 4.497-12 9.321-15
 CH4             3.4842-2 3.4052-2 3.5317-2 3.2611-2
 CH3OH           2.5764-7 2.2759-7 1.5073-7 2.0124-8
 *CO             4.4277-1 4.4129-1 4.2722-1 3.3374-1
 *CO2            6.2868-3 6.5320-3 1.0655-2 4.0804-2
 COOH            1.283 -9 1.066 -9 4.271-10 9.532-12
 C2H             2.979-13 1.847-13 6.326-15 3.790-20
 C2H2,acetylene  1.1753-5 9.5302-6 2.2406-6 1.2141-8
 C2H2,vinylidene 7.056-11 4.819-11 3.534-12 2.855-16
 CH2CO,ketene    4.9423-6 4.1787-6 1.6533-6 4.2640-8
 O(CH)2O         1.679-11 1.317-11 3.993-12 3.001-14
 HO(CO)2OH       8.848-16 7.236-16 4.686-16 2.982-17
 C2H3,vinyl      2.301 -9 1.665 -9 2.010-10 8.864-14
 CH3CO,acetyl    3.465 -9 2.675 -9 6.391-10 2.474-12
 C2H4            6.4371-5 5.5860-5 2.5849-5 1.2911-6
 C2H4O,ethylen-o 2.846-12 2.177-12 5.451-13 2.266-15
 CH3CHO,ethanal  2.1538-7 1.8374-7 9.6146-8 5.5394-9
 CH3COOH         1.742 -9 1.517 -9 1.161 -9 2.023-10
 OHCH2COOH       4.390-14 3.484-14 1.808-14 5.922-16
 C2H5            2.071 -8 1.602 -8 3.803 -9 1.558-11
 C2H6            1.3313-5 1.1850-5 8.1060-6 1.3503-6
 C2H5OH          8.006-10 6.557-10 3.238-10 1.245-11
 CH3OCH3         2.927-12 2.288-12 8.248-13 1.024-14
 C2O             1.884-12 1.279-12 9.192-14 6.409-18
 C3H3,1-propynl  9.980-14 6.275-14 2.933-15 4.230-20
 C3H3,2-propynl  2.793 -9 1.949 -9 1.852-10 3.462-14
 C3H4,allene     2.960 -8 2.246 -8 4.183 -9 7.988-12
 C3H4,propyne    8.132 -8 6.210 -8 1.209 -8 2.693-11
 C3H4,cyclo-     3.522-11 2.465-11 2.657-12 7.146-16
 C3H5,allyl      2.727 -9 2.009 -9 3.428-10 4.385-13
 C3H6,propylene  3.0255-7 2.4377-7 8.4949-8 1.2550-9
 C3H6,cyclo-     6.291-10 4.904-10 1.368-10 9.244-13
 C3H6O,propylox  1.135-14 8.115-15 1.599-15 2.307-18
 C3H6O,acetone   5.196-10 4.195-10 1.879-10 5.053-12
 C3H6O,propanal  1.938-10 1.510-10 5.329-11 6.167-13
 C3H7,n-propyl   2.105-11 1.489-11 2.404-12 2.027-15
 C3H7,i-propyl   2.066-11 1.479-11 2.578-12 2.839-15
 C3H8            1.412 -8 1.152 -8 5.446 -9 1.980-10
 C3H8O,1propanol 7.716-13 5.804-13 2.007-13 1.753-15
 C3H8O,2propanol 8.707-13 6.629-13 2.488-13 2.951-15
 C3O2            9.289-10 7.242-10 1.689-10 5.981-13
 C4H2,butadiyne  1.207-10 7.911-11 4.391-12 1.327-16
 C4H4,1,3-cyclo- 1.376-14 8.694-15 4.683-16 1.043-20
 C4H6,butadiene  2.058 -9 1.508 -9 2.767-10 4.205-13
 C4H6,1butyne    9.308-11 6.512-11 8.721-12 4.172-15
 C4H6,2butyne    1.043-10 7.467-11 1.167-11 9.619-15
 C4H6,cyclo-     2.582-12 1.824-12 2.614-13 1.621-16
 C4H8,1-butene   2.986-10 2.207-10 5.325-11 1.729-13
 C4H8,cis2-buten 1.403-10 1.047-10 2.713-11 1.125-13
 C4H8,tr2-butene 1.575-10 1.177-10 3.052-11 1.281-13
 C4H8,isobutene  1.870-10 1.404-10 3.773-11 1.798-13
 C4H8,cyclo-     9.875-14 7.107-14 1.438-14 2.528-17
 C4H9,n-butyl    5.669-14 3.719-14 4.481-15 1.089-18
 C4H9,i-butyl    3.498-14 2.314-14 2.943-15 8.730-19
 C4H9,s-butyl    3.805-14 2.500-14 3.039-15 7.538-19
 C4H9,t-butyl    1.211-14 8.157-15 1.172-15 5.255-19
 C4H10,n-butane  1.524-11 1.139-11 3.695-12 2.871-14
 C4H10,isobutane 5.515-12 4.154-12 1.422-12 1.346-14
 C5H6,1,3cyclo-  3.839-11 2.766-11 4.530-12 4.530-15
 C5H8,cyclo-     1.006-12 7.190-13 1.393-13 2.091-16
 C5H10,1-pentene 2.488-13 1.688-13 2.844-14 2.054-17
 C5H10,cyclo-    7.735-15 5.546-15 1.362-15 3.964-18
 C5H12,n-pentane 1.407-14 9.619-15 2.136-15 3.559-18
 C5H12,i-pentane 1.378-14 9.439-15 2.125-15 3.885-18
 CH3C(CH3)2CH3   8.059-16 5.517-16 1.252-16 2.599-19
 C6H2            1.326-15 7.032-16 9.296-18 1.625-24
 C6H5,phenyl     1.612-14 1.012-14 5.823-16 1.486-20
 C6H5O,phenoxy   6.889-16 4.528-16 4.530-17 6.349-21
 C6H6            3.999-10 3.033-10 7.029-11 2.419-13
 C6H5OH,phenol   1.766-13 1.262-13 2.476-14 3.501-17
 C6H10,cyclo-    3.133-16 2.081-16 3.059-17 1.441-20
 C6H12,1-hexene  2.058-16 1.283-16 1.508-17 2.418-21
 C7H7,benzyl     2.712-14 1.717-14 1.309-15 7.679-20
 C7H8            2.734-12 1.928-12 3.387-13 3.525-16
 C7H8O,cresol-mx 9.686-16 6.437-16 9.625-17 4.211-20
 C8H8,styrene    3.165-14 2.024-14 1.835-15 1.788-19
 C8H10,ethylbenz 3.060-15 1.974-15 2.364-16 5.139-20
 C10H8,naphthale 1.391-15 8.874-16 7.946-17 7.445-21
 *H              3.3710-6 2.8793-6 8.6655-7 1.3306-8
 HCO             1.767 -7 1.446 -7 4.096 -8 3.520-10
 HCCO            8.564-11 6.148-11 7.208-12 2.614-15
 *H2             4.3965-1 4.4018-1 4.3203-1 4.0406-1
 HCHO,formaldehy 9.1445-6 8.2036-6 4.8493-6 5.2937-7
 HCOOH           4.1949-7 3.8508-7 3.3879-7 1.1945-7
 H2O             1.8680-2 1.8960-2 2.5846-2 5.6589-2
 H2O2            1.804-15 1.320-15 2.498-16 3.435-19
 *O              3.532-14 2.478-14 2.236-15 3.685-19
 *OH             6.483 -9 5.299 -9 1.497 -9 1.302-11
 *O2             6.861-16 4.897-16 6.295-17 2.676-20
 C(gr)           5.7655-2 5.8893-2 6.8879-2 1.3220-1

  * THERMODYNAMIC PROPERTIES FITTED TO 20000.K

              THEORETICAL ROCKET PERFORMANCE ASSUMING EQUILIBRIUM

            COMPOSITION DURING EXPANSION FROM FINITE AREA COMBUSTOR

 Pin =  1469.6 PSIA
 Ac/At =  2.0000      Pinj/Pinf =  1.054321
 CASE = test___________

             REACTANT                       MOLES         ENERGY      TEMP
                                                         KJ/KG-MOL      K
 FUEL        RP-1                       100.0000000    -24717.700    298.150
 OXIDANT     O2(L)                      100.0000000    -12979.000     90.170

 O/F=    0.97305  %FUEL= 50.683017  R,EQ.RATIO= 3.500000  PHI,EQ.RATIO= 3.500000

                 INJECTOR  COMB END  THROAT     EXIT
 Pinj/P            1.0000   1.1181   1.8702   15.175
 P, BAR            101.33   90.623   54.179   6.6772
 T, K             1578.82  1559.55  1442.05  1133.02
 RHO, KG/CU M    1.2478 1 1.1295 1 7.3993 0 1.2383 0
 H, KJ/KG        -1096.39 -1143.77 -1537.96 -2848.28
 U, KJ/KG        -1908.45 -1946.08 -2270.18 -3387.52
 G, KJ/KG        -19820.6 -19681.9 -18679.3 -16316.3
 S, KJ/(KG)(K)    11.8596  11.8868  11.8868  11.8868

 M, (1/n)          16.165   16.162   16.375   17.470
 MW, MOL WT        15.013   14.988   15.014   14.915
 (dLV/dLP)t      -1.05428 -1.05432 -1.06373 -1.09771
 (dLV/dLT)p        1.4713   1.4803   1.6362   2.3738
 Cp, KJ/(KG)(K)    4.6443   4.7224   5.7942  11.9886
 GAMMAs            1.2277   1.2261   1.2061   1.1442
 SON VEL,M/SEC      998.5    991.8    939.7    785.5
 MACH NUMBER        0.000    0.310    1.000    2.383

 PERFORMANCE PARAMETERS

 Ae/At                      2.0000   1.0000   3.0000
 CSTAR, M/SEC               1382.1   1382.1   1382.1
 CF                         0.2227   0.6799   1.3543
 Ivac, M/SEC                2914.4   1718.9   2159.9
 Isp, M/SEC                  307.8    939.8   1871.8

 MOLE FRACTIONS

 *CH             7.614-16 4.603-16 1.401-17 4.911-23
 CH2             3.229-11 2.255-11 1.992-12 2.974-16
 CH3             4.8409-6 4.0417-6 1.3043-6 1.9245-8
 CH2OH           5.069-10 3.955-10 1.017-10 4.916-13
 CH3O            2.621-11 1.973-11 4.018-12 8.648-15
 CH4             3.7461-2 3.6615-2 3.7614-2 3.4092-2
 CH3OH           2.7529-7 2.4323-7 1.5926-7 2.0704-8
 *CO             4.2855-1 4.2699-1 4.1233-1 3.1942-1
 *CO2            6.8883-3 7.1492-3 1.1382-2 4.1056-2
 COOH            1.208 -9 1.004 -9 4.028-10 8.947-12
 C2H             1.808-13 1.125-13 4.156-15 2.931-20
 C2H2,acetylene  9.5989-6 7.7966-6 1.8893-6 1.0943-8
 C2H2,vinylidene 4.927-11 3.374-11 2.614-12 2.379-16
 CH2CO,ketene    4.5703-6 3.8671-6 1.5424-6 4.0370-8
 O(CH)2O         1.580-11 1.241-11 3.774-12 2.835-14
 HO(CO)2OH       1.027-15 8.398-16 5.254-16 3.052-17
 C2H3,vinyl      1.784 -9 1.294 -9 1.626-10 7.826-14
 CH3CO,acetyl    3.107 -9 2.402 -9 5.825-10 2.322-12
 C2H4            6.2093-5 5.3933-5 2.5138-5 1.2782-6
 C2H4O,ethylen-o 2.666-12 2.042-12 5.164-13 2.186-15
 CH3CHO,ethanal  2.2293-7 1.9027-7 9.8936-8 5.6109-9
 CH3COOH         2.002 -9 1.743 -9 1.301 -9 2.136-10
 OHCH2COOH       5.052-14 4.010-14 2.026-14 6.186-16
 C2H5            1.895 -8 1.469 -8 3.547 -9 1.511-11
 C2H6            1.4591-5 1.2994-5 8.8046-6 1.4409-6
 C2H5OH          8.863-10 7.262-10 3.538-10 1.319-11
 CH3OCH3         3.105-12 2.430-12 8.701-13 1.063-14
 C2O             1.284-12 8.740-13 6.624-14 5.158-18
 C3H3,1-propynl  6.809-14 4.296-14 2.132-15 3.504-20
 C3H3,2-propynl  2.096 -9 1.467 -9 1.458-10 3.009-14
 C3H4,allene     2.526 -8 1.920 -8 3.672 -9 7.442-12
 C3H4,propyne    6.980 -8 5.340 -8 1.067 -8 2.516-11
 C3H4,cyclo-     2.792-11 1.958-11 2.194-12 6.419-16
 C3H5,allyl      2.387 -9 1.762 -9 3.082-10 4.164-13
 C3H6,propylene  3.0278-7 2.4427-7 8.5532-8 1.2802-9
 C3H6,cyclo-     6.108-10 4.769-10 1.343-10 9.295-13
 C3H6O,propylox  1.110-14 7.948-15 1.576-15 2.300-18
 C3H6O,acetone   5.678-10 4.587-10 2.031-10 5.318-12
 C3H6O,propanal  2.050-10 1.599-10 5.608-11 6.391-13
 C3H7,n-propyl   1.971-11 1.398-11 2.295-12 2.013-15
 C3H7,i-propyl   1.955-11 1.402-11 2.483-12 2.833-15
 C3H8            1.587 -8 1.296 -8 6.066 -9 2.165-10
 C3H8O,1propanol 8.775-13 6.608-13 2.252-13 1.905-15
 C3H8O,2propanol 1.001-12 7.629-13 2.818-13 3.225-15
 C3O2            7.831-10 6.112-10 1.450-10 5.284-13
 C4H2,butadiyne  8.117-11 5.336-11 3.148-12 1.086-16
 C4H4,1,3-cyclo- 9.935-15 6.296-15 3.577-16 8.943-21
 C4H6,butadiene  1.888 -9 1.386 -9 2.593-10 4.113-13
 C4H6,1butyne    8.189-11 5.742-11 7.886-12 3.992-15
 C4H6,2butyne    9.371-11 6.722-11 1.073-11 9.298-15
 C4H6,cyclo-     2.291-12 1.623-12 2.382-13 1.560-16
 C4H8,1-butene   3.066-10 2.269-10 5.500-11 1.807-13
 C4H8,cis2-buten 1.454-10 1.087-10 2.824-11 1.181-13
 C4H8,tr2-butene 1.633-10 1.222-10 3.177-11 1.345-13
 C4H8,isobutene  1.948-10 1.465-10 3.944-11 1.893-13
 C4H8,cyclo-     9.897-14 7.138-14 1.457-14 2.613-17
 C4H9,n-butyl    5.502-14 3.619-14 4.425-15 1.114-18
 C4H9,i-butyl    3.420-14 2.267-14 2.924-15 8.961-19
 C4H9,s-butyl    3.698-14 2.436-14 3.004-15 7.711-19
 C4H9,t-butyl    1.204-14 8.127-15 1.181-15 5.434-19
 C4H10,n-butane  1.755-11 1.314-11 4.217-12 3.216-14
 C4H10,isobutane 6.396-12 4.824-12 1.633-12 1.513-14
 C5H6,1,3cyclo-  3.470-11 2.506-11 4.191-12 4.396-15
 C5H8,cyclo-     1.002-12 7.179-13 1.403-13 2.155-16
 C5H10,1-pentene 2.623-13 1.784-13 3.015-14 2.200-17
 C5H10,cyclo-    8.577-15 6.160-15 1.507-15 4.359-18
 C5H12,n-pentane 1.658-14 1.136-14 2.497-15 4.083-18
 C5H12,i-pentane 1.627-14 1.117-14 2.489-15 4.467-18
 CH3C(CH3)2CH3   9.511-16 6.528-16 1.469-16 2.998-19
 C6H2            7.351-16 3.916-16 5.671-18 1.208-24
 C6H5,phenyl     1.219-14 7.676-15 4.632-16 1.312-20
 C6H5O,phenoxy   5.922-16 3.902-16 4.002-17 5.904-21
 C6H6            3.788-10 2.878-10 6.761-11 2.401-13
 C6H5OH,phenol   1.726-13 1.235-13 2.440-14 3.489-17
 C6H10,cyclo-    3.240-16 2.158-16 3.195-17 1.532-20
 C6H12,1-hexene  2.229-16 1.393-16 1.640-17 2.654-21
 C7H7,benzyl     2.295-14 1.458-14 1.149-15 7.258-20
 C7H8            2.689-12 1.900-12 3.376-13 3.607-16
 C7H8O,cresol-mx 9.837-16 6.550-16 9.831-17 4.328-20
 C8H8,styrene    2.847-14 1.826-14 1.698-15 1.751-19
 C8H10,ethylbenz 3.081-15 1.992-15 2.413-16 5.384-20
 C10H8,naphthale 1.249-15 7.992-16 7.341-17 7.287-21
 *H              2.7399-6 2.3438-6 7.2699-7 1.1919-8
 HCO             1.505 -7 1.232 -7 3.560 -8 3.181-10
 HCCO            6.474-11 4.658-11 5.673-12 2.227-15
 *H2             4.3527-1 4.3584-1 4.2784-1 4.0095-1
 HCHO,formaldehy 8.9261-6 8.0102-6 4.7329-6 5.1483-7
 HCOOH           4.5572-7 4.1823-7 3.6098-7 1.2122-7
 H2O             2.0409-2 2.0701-2 2.7710-2 5.8193-2
 H2O2            1.594-15 1.168-15 2.239-16 3.143-19
 *O              2.481-14 1.745-14 1.654-15 3.014-19
 *OH             5.517 -9 4.515 -9 1.301 -9 1.177-11
 *O2             5.336-16 3.816-16 5.055-17 2.273-20
 C(gr)           7.1314-2 7.2607-2 8.3075-2 1.4628-1

  * THERMODYNAMIC PROPERTIES FITTED TO 20000.K

              THEORETICAL ROCKET PERFORMANCE ASSUMING EQUILIBRIUM

            COMPOSITION DURING EXPANSION FROM FINITE AREA COMBUSTOR

 Pin =  1469.6 PSIA
 Ac/At =  2.0000      Pinj/Pinf =  1.054151
 CASE = test___________

             REACTANT                       MOLES         ENERGY      TEMP
                                                         KJ/KG-MOL      K
 FUEL        RP-1                       100.0000000    -24717.700    298.150
 OXIDANT     O2(L)                      100.0000000    -12979.000     90.170

 O/F=    0.94602  %FUEL= 51.386975  R,EQ.RATIO= 3.600000  PHI,EQ.RATIO= 3.600000

                 INJECTOR  COMB END  THROAT     EXIT
 Pinj/P            1.0000   1.1177   1.8668   15.106
 P, BAR            101.33   90.654   54.276   6.7074
 T, K             1562.16  1543.43  1430.36  1128.55
 RHO, KG/CU M    1.2676 1 1.1476 1 7.5127 0 1.2547 0
 H, KJ/KG        -1105.99 -1152.48 -1539.91 -2834.54
 U, KJ/KG        -1905.32 -1942.42 -2262.37 -3369.13
 G, KJ/KG        -19565.5 -19432.4 -18480.7 -16200.7
 S, KJ/(KG)(K)    11.8167  11.8437  11.8437  11.8437

 M, (1/n)          16.249   16.245   16.461   17.553
 MW, MOL WT        14.878   14.853   14.872   14.751
 (dLV/dLP)t      -1.05815 -1.05820 -1.06748 -1.09972
 (dLV/dLT)p        1.5121   1.5217   1.6799   2.4017
 Cp, KJ/(KG)(K)    4.8805   4.9648   6.0659  12.1647
 GAMMAs            1.2219   1.2203   1.2012   1.1427
 SON VEL,M/SEC      988.3    981.8    931.6    781.6
 MACH NUMBER        0.000    0.311    1.000    2.379

 PERFORMANCE PARAMETERS

 Ae/At                      2.0000   1.0000   3.0000
 CSTAR, M/SEC               1373.4   1373.4   1373.4
 CF                         0.2220   0.6783   1.3538
 Ivac, M/SEC                2895.5   1707.1   2146.8
 Isp, M/SEC                  304.9    931.6   1859.3

 MOLE FRACTIONS

 *CH             4.642-16 2.817-16 9.223-18 3.769-23
 CH2             2.342-11 1.640-11 1.519-12 2.510-16
 CH3             4.3022-6 3.5965-6 1.1817-6 1.8137-8
 CH2OH           4.604-10 3.596-10 9.361-11 4.629-13
 CH3O            2.308-11 1.741-11 3.606-12 8.025-15
 CH4             4.0064-2 3.9162-2 3.9891-2 3.5579-2
 CH3OH           2.9237-7 2.5837-7 1.6743-7 2.1254-8
 *CO             4.1495-1 4.1333-1 3.9815-1 3.0592-1
 *CO2            7.4859-3 7.7610-3 1.2082-2 4.1265-2
 COOH            1.139 -9 9.469-10 3.801-10 8.396-12
 C2H             1.130-13 7.058-14 2.793-15 2.279-20
 C2H2,acetylene  7.9316-6 6.4527-6 1.6075-6 9.8814-9
 C2H2,vinylidene 3.514-11 2.413-11 1.965-12 1.989-16
 CH2CO,ketene    4.2389-6 3.5892-6 1.4420-6 3.8225-8
 O(CH)2O         1.489-11 1.170-11 3.568-12 2.676-14
 HO(CO)2OH       1.177-15 9.611-16 5.822-16 3.112-17
 C2H3,vinyl      1.404 -9 1.020 -9 1.330-10 6.923-14
 CH3CO,acetyl    2.800 -9 2.168 -9 5.327-10 2.179-12
 C2H4            5.9972-5 5.2136-5 2.4465-5 1.2645-6
 C2H4O,ethylen-o 2.503-12 1.920-12 4.897-13 2.107-15
 CH3CHO,ethanal  2.2980-7 1.9622-7 1.0145-7 5.6725-9
 CH3COOH         2.275 -9 1.980 -9 1.445 -9 2.247-10
 OHCH2COOH       5.742-14 4.557-14 2.246-14 6.435-16
 C2H5            1.742 -8 1.353 -8 3.318 -9 1.465-11
 C2H6            1.5884-5 1.4153-5 9.5100-6 1.5332-6
 C2H5OH          9.729-10 7.976-10 3.839-10 1.393-11
 CH3OCH3         3.276-12 2.565-12 9.131-13 1.099-14
 C2O             8.947-13 6.104-13 4.854-14 4.167-18
 C3H3,1-propynl  4.751-14 3.007-14 1.576-15 2.911-20
 C3H3,2-propynl  1.600 -9 1.123 -9 1.162-10 2.620-14
 C3H4,allene     2.174 -8 1.656 -8 3.245 -9 6.937-12
 C3H4,propyne    6.042 -8 4.631 -8 9.468 -9 2.352-11
 C3H4,cyclo-     2.242-11 1.577-11 1.830-12 5.773-16
 C3H5,allyl      2.105 -9 1.557 -9 2.784-10 3.953-13
 C3H6,propylene  3.0266-7 2.4447-7 8.6002-8 1.3032-9
 C3H6,cyclo-     5.935-10 4.641-10 1.319-10 9.330-13
 C3H6O,propylox  1.085-14 7.778-15 1.552-15 2.288-18
 C3H6O,acetone   6.157-10 4.977-10 2.181-10 5.579-12
 C3H6O,propanal  2.157-10 1.684-10 5.872-11 6.603-13
 C3H7,n-propyl   1.852-11 1.316-11 2.195-12 1.995-15
 C3H7,i-propyl   1.855-11 1.333-11 2.393-12 2.821-15
 C3H8            1.769 -8 1.446 -8 6.707 -9 2.358-10
 C3H8O,1propanol 9.878-13 7.446-13 2.505-13 2.060-15
 C3H8O,2propanol 1.139-12 8.685-13 3.162-13 3.508-15
 C3O2            6.653-10 5.198-10 1.252-10 4.674-13
 C4H2,butadiyne  5.588-11 3.685-11 2.298-12 8.921-17
 C4H4,1,3-cyclo- 7.309-15 4.647-15 2.771-16 7.685-21
 C4H6,butadiene  1.740 -9 1.280 -9 2.437-10 4.018-13
 C4H6,1butyne    7.252-11 5.097-11 7.164-12 3.817-15
 C4H6,2butyne    8.463-11 6.083-11 9.912-12 8.978-15
 C4H6,cyclo-     2.047-12 1.452-12 2.180-13 1.499-16
 C4H8,1-butene   3.138-10 2.327-10 5.663-11 1.883-13
 C4H8,cis2-buten 1.502-10 1.125-10 2.929-11 1.236-13
 C4H8,tr2-butene 1.687-10 1.264-10 3.296-11 1.408-13
 C4H8,isobutene  2.022-10 1.522-10 4.108-11 1.986-13
 C4H8,cyclo-     9.906-14 7.157-14 1.472-14 2.693-17
 C4H9,n-butyl    5.342-14 3.522-14 4.367-15 1.136-18
 C4H9,i-butyl    3.343-14 2.222-14 2.903-15 9.169-19
 C4H9,s-butyl    3.595-14 2.373-14 2.967-15 7.862-19
 C4H9,t-butyl    1.195-14 8.088-15 1.187-15 5.600-19
 C4H10,n-butane  2.001-11 1.499-11 4.770-12 3.583-14
 C4H10,isobutane 7.340-12 5.544-12 1.858-12 1.691-14
 C5H6,1,3cyclo-  3.152-11 2.281-11 3.890-12 4.261-15
 C5H8,cyclo-     9.972-13 7.159-13 1.412-13 2.215-16
 C5H10,1-pentene 2.753-13 1.876-13 3.181-14 2.346-17
 C5H10,cyclo-    9.436-15 6.790-15 1.656-15 4.771-18
 C5H12,n-pentane 1.932-14 1.327-14 2.890-15 4.654-18
 C5H12,i-pentane 1.898-14 1.306-14 2.886-15 5.103-18
 CH3C(CH3)2CH3   1.110-15 7.635-16 1.707-16 3.437-19
 C6H2            4.220-16 2.259-16 3.555-18 9.029-25
 C6H5,phenyl     9.367-15 5.916-15 3.728-16 1.159-20
 C6H5O,phenoxy   5.127-16 3.386-16 3.553-17 5.487-21
 C6H6            3.595-10 2.737-10 6.510-11 2.381-13
 C6H5OH,phenol   1.686-13 1.208-13 2.401-14 3.469-17
 C6H10,cyclo-    3.340-16 2.230-16 3.324-17 1.623-20
 C6H12,1-hexene  2.398-16 1.502-16 1.773-17 2.897-21
 C7H7,benzyl     1.960-14 1.249-14 1.015-15 6.853-20
 C7H8            2.644-12 1.872-12 3.360-13 3.682-16
 C7H8O,cresol-mx 9.958-16 6.643-16 1.001-16 4.432-20
 C8H8,styrene    2.575-14 1.655-14 1.576-15 1.711-19
 C8H10,ethylbenz 3.096-15 2.007-15 2.456-16 5.619-20
 C10H8,naphthale 1.127-15 7.235-16 6.805-17 7.118-21
 *H              2.2542-6 1.9312-6 6.1570-7 1.0701-8
 HCO             1.292 -7 1.059 -7 3.113 -8 2.878-10
 HCCO            4.970-11 3.583-11 4.518-12 1.901-15
 *H2             4.3090-1 4.3152-1 4.2371-1 3.9788-1
 HCHO,formaldehy 8.7103-6 7.8188-6 4.6177-6 5.0048-7
 HCOOH           4.9125-7 4.5068-7 3.8221-7 1.2278-7
 H2O             2.2137-2 2.2440-2 2.9542-2 5.9757-2
 H2O2            1.415-15 1.038-15 2.013-16 2.876-19
 *O              1.778-14 1.254-14 1.242-15 2.475-19
 *OH             4.733 -9 3.878 -9 1.138 -9 1.065-11
 *O2             4.204-16 3.011-16 4.098-17 1.935-20
 C(gr)           8.4355-2 8.5697-2 9.6588-2 1.5960-1

  * THERMODYNAMIC PROPERTIES FITTED TO 20000.K

              THEORETICAL ROCKET PERFORMANCE ASSUMING EQUILIBRIUM

            COMPOSITION DURING EXPANSION FROM FINITE AREA COMBUSTOR

 Pin =  1469.6 PSIA
 Ac/At =  2.0000      Pinj/Pinf =  1.053995
 CASE = test___________

             REACTANT                       MOLES         ENERGY      TEMP
                                                         KJ/KG-MOL      K
 FUEL        RP-1                       100.0000000    -24717.700    298.150
 OXIDANT     O2(L)                      100.0000000    -12979.000     90.170

 O/F=    0.92045  %FUEL= 52.071120  R,EQ.RATIO= 3.700000  PHI,EQ.RATIO= 3.700000

                 INJECTOR  COMB END  THROAT     EXIT
 Pinj/P            1.0000   1.1173   1.8638   15.043
 P, BAR            101.33   90.683   54.366   6.7355
 T, K             1546.79  1528.55  1419.47  1124.19
 RHO, KG/CU M    1.2869 1 1.1652 1 7.6230 0 1.2708 0
 H, KJ/KG        -1115.31 -1160.98 -1542.07 -2821.66
 U, KJ/KG        -1902.65 -1939.23 -2255.25 -3351.70
 G, KJ/KG        -19327.8 -19199.7 -18293.6 -16088.4
 S, KJ/(KG)(K)    11.7744  11.8012  11.8012  11.8012

 M, (1/n)          16.335   16.330   16.549   17.635
 MW, MOL WT        14.753   14.727   14.737   14.598
 (dLV/dLP)t      -1.06192 -1.06198 -1.07109 -1.10161
 (dLV/dLT)p        1.5525   1.5626   1.7225   2.4277
 Cp, KJ/(KG)(K)    5.1147   5.2049   6.3296  12.3245
 GAMMAs            1.2165   1.2149   1.1968   1.1414
 SON VEL,M/SEC      978.7    972.4    923.9    777.8
 MACH NUMBER        0.000    0.311    1.000    2.375

 PERFORMANCE PARAMETERS

 Ae/At                      2.0000   1.0000   3.0000
 CSTAR, M/SEC               1365.0   1365.0   1365.0
 CF                         0.2214   0.6768   1.3533
 Ivac, M/SEC                2877.5   1695.8   2134.3
 Isp, M/SEC                  302.2    923.9   1847.3

 MOLE FRACTIONS

 *CH             2.912-16 1.774-16 6.204-18 2.907-23
 CH2             1.730-11 1.214-11 1.175-12 2.124-16
 CH3             3.8472-6 3.2201-6 1.0755-6 1.7104-8
 CH2OH           4.197-10 3.282-10 8.638-11 4.357-13
 CH3O            2.045-11 1.545-11 3.250-12 7.447-15
 CH4             4.2644-2 4.1687-2 4.2145-2 3.7073-2
 CH3OH           3.0883-7 2.7295-7 1.7524-7 2.1773-8
 *CO             4.0193-1 4.0025-1 3.8463-1 2.9316-1
 *CO2            8.0754-3 8.3631-3 1.2753-2 4.1434-2
 COOH            1.074 -9 8.934-10 3.588-10 7.879-12
 C2H             7.258-14 4.550-14 1.917-15 1.780-20
 C2H2,acetylene  6.6237-6 5.3970-6 1.3788-6 8.9381-9
 C2H2,vinylidene 2.554-11 1.759-11 1.499-12 1.668-16
 CH2CO,ketene    3.9423-6 3.3403-6 1.3509-6 3.6198-8
 O(CH)2O         1.404-11 1.104-11 3.374-12 2.524-14
 HO(CO)2OH       1.330-15 1.086-15 6.387-16 3.162-17
 C2H3,vinyl      1.119 -9 8.151-10 1.099-10 6.134-14
 CH3CO,acetyl    2.534 -9 1.964 -9 4.887-10 2.044-12
 C2H4            5.7992-5 5.0457-5 2.3828-5 1.2502-6
 C2H4O,ethylen-o 2.355-12 1.808-12 4.650-13 2.028-15
 CH3CHO,ethanal  2.3601-7 2.0161-7 1.0370-7 5.7247-9
 CH3COOH         2.558 -9 2.226 -9 1.592 -9 2.356-10
 OHCH2COOH       6.452-14 5.121-14 2.467-14 6.670-16
 C2H5            1.608 -8 1.250 -8 3.112 -9 1.419-11
 C2H6            1.7188-5 1.5322-5 1.0220-5 1.6272-6
 C2H5OH          1.060 -9 8.694-10 4.140-10 1.466-11
 CH3OCH3         3.437-12 2.694-12 9.539-13 1.134-14
 C2O             6.358-13 4.348-13 3.612-14 3.378-18
 C3H3,1-propynl  3.383-14 2.148-14 1.183-15 2.426-20
 C3H3,2-propynl  1.240 -9 8.719-10 9.373-11 2.286-14
 C3H4,allene     1.886 -8 1.439 -8 2.885 -9 6.469-12
 C3H4,propyne    5.270 -8 4.046 -8 8.453 -9 2.199-11
 C3H4,cyclo-     1.823-11 1.285-11 1.539-12 5.197-16
 C3H5,allyl      1.867 -9 1.384 -9 2.527-10 3.752-13
 C3H6,propylene  3.0223-7 2.4440-7 8.6368-8 1.3243-9
 C3H6,cyclo-     5.771-10 4.519-10 1.296-10 9.351-13
 C3H6O,propylox  1.059-14 7.606-15 1.526-15 2.271-18
 C3H6O,acetone   6.631-10 5.363-10 2.329-10 5.834-12
 C3H6O,propanal  2.257-10 1.764-10 6.122-11 6.803-13
 C3H7,n-propyl   1.744-11 1.241-11 2.101-12 1.973-15
 C3H7,i-propyl   1.763-11 1.269-11 2.309-12 2.804-15
 C3H8            1.956 -8 1.601 -8 7.369 -9 2.558-10
 C3H8O,1propanol 1.102-12 8.312-13 2.765-13 2.218-15
 C3H8O,2propanol 1.282-12 9.789-13 3.519-13 3.798-15
 C3O2            5.693-10 4.452-10 1.087-10 4.141-13
 C4H2,butadiyne  3.929-11 2.599-11 1.705-12 7.352-17
 C4H4,1,3-cyclo- 5.470-15 3.489-15 2.174-16 6.617-21
 C4H6,butadiene  1.609 -9 1.186 -9 2.295-10 3.921-13
 C4H6,1butyne    6.462-11 4.551-11 6.536-12 3.648-15
 C4H6,2butyne    7.681-11 5.532-11 9.182-12 8.662-15
 C4H6,cyclo-     1.838-12 1.307-12 2.003-13 1.439-16
 C4H8,1-butene   3.204-10 2.379-10 5.815-11 1.956-13
 C4H8,cis2-buten 1.546-10 1.160-10 3.029-11 1.289-13
 C4H8,tr2-butene 1.737-10 1.303-10 3.409-11 1.470-13
 C4H8,isobutene  2.090-10 1.577-10 4.264-11 2.077-13
 C4H8,cyclo-     9.902-14 7.167-14 1.486-14 2.767-17
 C4H9,n-butyl    5.189-14 3.429-14 4.308-15 1.154-18
 C4H9,i-butyl    3.268-14 2.177-14 2.879-15 9.354-19
 C4H9,s-butyl    3.496-14 2.313-14 2.929-15 7.993-19
 C4H9,t-butyl    1.186-14 8.040-15 1.192-15 5.753-19
 C4H10,n-butane  2.260-11 1.696-11 5.355-12 3.972-14
 C4H10,isobutane 8.344-12 6.310-12 2.097-12 1.882-14
 C5H6,1,3cyclo-  2.876-11 2.085-11 3.622-12 4.127-15
 C5H8,cyclo-     9.916-13 7.132-13 1.418-13 2.270-16
 C5H10,1-pentene 2.876-13 1.964-13 3.342-14 2.492-17
 C5H10,cyclo-    1.031-14 7.430-15 1.807-15 5.198-18
 C5H12,n-pentane 2.228-14 1.532-14 3.313-15 5.274-18
 C5H12,i-pentane 2.192-14 1.510-14 3.316-15 5.795-18
 CH3C(CH3)2CH3   1.282-15 8.837-16 1.964-16 3.916-19
 C6H2            2.501-16 1.345-16 2.283-18 6.784-25
 C6H5,phenyl     7.303-15 4.626-15 3.034-16 1.025-20
 C6H5O,phenoxy   4.468-16 2.957-16 3.169-17 5.096-21
 C6H6            3.420-10 2.607-10 6.276-11 2.357-13
 C6H5OH,phenol   1.645-13 1.181-13 2.359-14 3.442-17
 C6H10,cyclo-    3.433-16 2.297-16 3.447-17 1.712-20
 C6H12,1-hexene  2.565-16 1.609-16 1.906-17 3.146-21
 C7H7,benzyl     1.688-14 1.078-14 9.012-16 6.466-20
 C7H8            2.600-12 1.844-12 3.343-13 3.748-16
 C7H8O,cresol-mx 1.005-15 6.717-16 1.015-16 4.523-20
 C8H8,styrene    2.339-14 1.508-14 1.467-15 1.670-19
 C8H10,ethylbenz 3.105-15 2.018-15 2.494-16 5.843-20
 C10H8,naphthale 1.023-15 6.580-16 6.326-17 6.940-21
 *H              1.8752-6 1.6088-6 5.2590-7 9.6288-9
 HCO             1.117 -7 9.167 -8 2.738 -8 2.607-10
 HCCO            3.869-11 2.795-11 3.636-12 1.628-15
 *H2             4.2657-1 4.2724-1 4.1963-1 3.9485-1
 HCHO,formaldehy 8.4975-6 7.6298-6 4.5041-6 4.8636-7
 HCOOH           5.2582-7 4.8223-7 4.0240-7 1.2414-7
 H2O             2.3856-2 2.4169-2 3.1338-2 6.1279-2
 H2O2            1.261-15 9.264-16 1.816-16 2.631-19
 *O              1.298-14 9.173-15 9.460-16 2.039-19
 *OH             4.091 -9 3.355 -9 1.001 -9 9.657-12
 *O2             3.350-16 2.404-16 3.352-17 1.650-20
 C(gr)           9.6818-2 9.8204-2 1.0946-1 1.7221-1

  * THERMODYNAMIC PROPERTIES FITTED TO 20000.K

              THEORETICAL ROCKET PERFORMANCE ASSUMING EQUILIBRIUM

            COMPOSITION DURING EXPANSION FROM FINITE AREA COMBUSTOR

 Pin =  1469.6 PSIA
 Ac/At =  2.0000      Pinj/Pinf =  1.053850
 CASE = test___________

             REACTANT                       MOLES         ENERGY      TEMP
                                                         KJ/KG-MOL      K
 FUEL        RP-1                       100.0000000    -24717.700    298.150
 OXIDANT     O2(L)                      100.0000000    -12979.000     90.170

 O/F=    0.89623  %FUEL= 52.736275  R,EQ.RATIO= 3.800000  PHI,EQ.RATIO= 3.800000

                 INJECTOR  COMB END  THROAT     EXIT
 Pinj/P            1.0000   1.1170   1.8609   14.985
 P, BAR            101.33   90.710   54.448   6.7616
 T, K             1532.57  1514.79  1409.29  1119.94
 RHO, KG/CU M    1.3058 1 1.1823 1 7.7306 0 1.2865 0
 H, KJ/KG        -1124.38 -1169.27 -1544.40 -2809.55
 U, KJ/KG        -1900.37 -1936.47 -2248.72 -3335.14
 G, KJ/KG        -19105.6 -18982.1 -18116.6 -15979.3
 S, KJ/(KG)(K)    11.7327  11.7593  11.7593  11.7593

 M, (1/n)          16.421   16.416   16.637   17.717
 MW, MOL WT        14.635   14.608   14.611   14.454
 (dLV/dLP)t      -1.06558 -1.06564 -1.07456 -1.10338
 (dLV/dLT)p        1.5922   1.6028   1.7637   2.4518
 Cp, KJ/(KG)(K)    5.3456   5.4412   6.5844  12.4687
 GAMMAs            1.2114   1.2099   1.1927   1.1401
 SON VEL,M/SEC      969.6    963.5    916.5    774.1
 MACH NUMBER        0.000    0.311    1.000    2.372

 PERFORMANCE PARAMETERS

 Ae/At                      2.0000   1.0000   3.0000
 CSTAR, M/SEC               1357.0   1357.0   1357.0
 CF                         0.2208   0.6754   1.3529
 Ivac, M/SEC                2860.1   1685.0   2122.1
 Isp, M/SEC                  299.6    916.5   1835.8

 MOLE FRACTIONS

 *CH             1.875-16 1.146-16 4.257-18 2.253-23
 CH2             1.299-11 9.141-12 9.197-13 1.803-16
 CH3             3.4597-6 2.8991-6 9.8296-7 1.6140-8
 CH2OH           3.840-10 3.006-10 7.990-11 4.102-13
 CH3O            1.821-11 1.377-11 2.939-12 6.913-15
 CH4             4.5196-2 4.4185-2 4.4374-2 3.8571-2
 CH3OH           3.2462-7 2.8695-7 1.8268-7 2.2264-8
 *CO             3.8946-1 3.8773-1 3.7174-1 2.8110-1
 *CO2            8.6532-3 8.9520-3 1.3394-2 4.1563-2
 COOH            1.014 -9 8.436-10 3.389-10 7.393-12
 C2H             4.778-14 3.005-14 1.340-15 1.397-20
 C2H2,acetylene  5.5848-6 4.5573-6 1.1912-6 8.0984-9
 C2H2,vinylidene 1.890-11 1.305-11 1.158-12 1.403-16
 CH2CO,ketene    3.6756-6 3.1163-6 1.2677-6 3.4284-8
 O(CH)2O         1.325-11 1.042-11 3.192-12 2.380-14
 HO(CO)2OH       1.487-15 1.213-15 6.941-16 3.203-17
 C2H3,vinyl      9.033-10 6.592-10 9.158-11 5.445-14
 CH3CO,acetyl    2.303 -9 1.787 -9 4.496-10 1.918-12
 C2H4            5.6138-5 4.8884-5 2.3223-5 1.2353-6
 C2H4O,ethylen-o 2.219-12 1.706-12 4.418-13 1.952-15
 CH3CHO,ethanal  2.4159-7 2.0645-7 1.0570-7 5.7680-9
 CH3COOH         2.850 -9 2.480 -9 1.740 -9 2.463-10
 OHCH2COOH       7.177-14 5.695-14 2.687-14 6.889-16
 C2H5            1.490 -8 1.160 -8 2.927 -9 1.374-11
 C2H6            1.8498-5 1.6497-5 1.0935-5 1.7227-6
 C2H5OH          1.147 -9 9.412-10 4.438-10 1.539-11
 CH3OCH3         3.590-12 2.816-12 9.924-13 1.166-14
 C2O             4.599-13 3.153-13 2.724-14 2.749-18
 C3H3,1-propynl  2.454-14 1.563-14 9.010-16 2.027-20
 C3H3,2-propynl  9.737-10 6.865-10 7.637-11 1.999-14
 C3H4,allene     1.649 -8 1.260 -8 2.578 -9 6.035-12
 C3H4,propyne    4.629 -8 3.560 -8 7.585 -9 2.057-11
 C3H4,cyclo-     1.498-11 1.058-11 1.306-12 4.684-16
 C3H5,allyl      1.667 -9 1.238 -9 2.303-10 3.560-13
 C3H6,propylene  3.0152-7 2.4409-7 8.6641-8 1.3434-9
 C3H6,cyclo-     5.615-10 4.403-10 1.273-10 9.358-13
 C3H6O,propylox  1.033-14 7.433-15 1.499-15 2.250-18
 C3H6O,acetone   7.097-10 5.743-10 2.473-10 6.083-12
 C3H6O,propanal  2.352-10 1.839-10 6.356-11 6.990-13
 C3H7,n-propyl   1.646-11 1.174-11 2.014-12 1.949-15
 C3H7,i-propyl   1.678-11 1.210-11 2.229-12 2.782-15
 C3H8            2.149 -8 1.760 -8 8.049 -9 2.765-10
 C3H8O,1propanol 1.219-12 9.201-13 3.030-13 2.378-15
 C3H8O,2propanol 1.432-12 1.094-12 3.887-13 4.095-15
 C3O2            4.903-10 3.837-10 9.481-11 3.673-13
 C4H2,butadiyne  2.817-11 1.869-11 1.283-12 6.079-17
 C4H4,1,3-cyclo- 4.159-15 2.660-15 1.726-16 5.708-21
 C4H6,butadiene  1.494 -9 1.103 -9 2.166-10 3.823-13
 C4H6,1butyne    5.790-11 4.086-11 5.985-12 3.484-15
 C4H6,2butyne    7.003-11 5.053-11 8.532-12 8.351-15
 C4H6,cyclo-     1.660-12 1.183-12 1.846-13 1.381-16
 C4H8,1-butene   3.263-10 2.427-10 5.957-11 2.027-13
 C4H8,cis2-buten 1.587-10 1.192-10 3.123-11 1.341-13
 C4H8,tr2-butene 1.784-10 1.340-10 3.516-11 1.529-13
 C4H8,isobutene  2.155-10 1.628-10 4.413-11 2.167-13
 C4H8,cyclo-     9.888-14 7.169-14 1.497-14 2.837-17
 C4H9,n-butyl    5.042-14 3.339-14 4.247-15 1.170-18
 C4H9,i-butyl    3.195-14 2.133-14 2.853-15 9.517-19
 C4H9,s-butyl    3.400-14 2.255-14 2.889-15 8.105-19
 C4H9,t-butyl    1.176-14 7.986-15 1.194-15 5.893-19
 C4H10,n-butane  2.532-11 1.902-11 5.967-12 4.384-14
 C4H10,isobutane 9.405-12 7.120-12 2.349-12 2.084-14
 C5H6,1,3cyclo-  2.636-11 1.915-11 3.381-12 3.993-15
 C5H8,cyclo-     9.853-13 7.099-13 1.423-13 2.321-16
 C5H10,1-pentene 2.994-13 2.048-13 3.498-14 2.637-17
 C5H10,cyclo-    1.119-14 8.080-15 1.962-15 5.640-18
 C5H12,n-pentane 2.545-14 1.753-14 3.767-15 5.944-18
 C5H12,i-pentane 2.507-14 1.730-14 3.777-15 6.544-18
 CH3C(CH3)2CH3   1.467-15 1.013-15 2.242-16 4.437-19
 C6H2            1.526-16 8.241-17 1.498-18 5.123-25
 C6H5,phenyl     5.769-15 3.665-15 2.492-16 9.080-21
 C6H5O,phenoxy   3.917-16 2.598-16 2.837-17 4.731-21
 C6H6            3.259-10 2.488-10 6.056-11 2.331-13
 C6H5OH,phenol   1.605-13 1.154-13 2.317-14 3.409-17
 C6H10,cyclo-    3.518-16 2.359-16 3.564-17 1.799-20
 C6H12,1-hexene  2.728-16 1.715-16 2.038-17 3.400-21
 C7H7,benzyl     1.464-14 9.376-15 8.044-16 6.097-20
 C7H8            2.555-12 1.815-12 3.322-13 3.806-16
 C7H8O,cresol-mx 1.012-15 6.773-16 1.027-16 4.602-20
 C8H8,styrene    2.135-14 1.379-14 1.368-15 1.626-19
 C8H10,ethylbenz 3.111-15 2.026-15 2.527-16 6.055-20
 C10H8,naphthale 9.318-16 6.010-16 5.896-17 6.757-21
 *H              1.5757-6 1.3536-6 4.5266-7 8.6823-9
 HCO             9.726 -8 7.988 -8 2.420 -8 2.365-10
 HCCO            3.050-11 2.207-11 2.955-12 1.396-15
 *H2             4.2229-1 4.2300-1 4.1561-1 3.9185-1
 HCHO,formaldehy 8.2882-6 7.4436-6 4.3921-6 4.7249-7
 HCOOH           5.5926-7 5.1270-7 4.2150-7 1.2529-7
 H2O             2.5559-2 2.5879-2 3.3095-2 6.2761-2
 H2O2            1.129-15 8.300-16 1.642-16 2.407-19
 *O              9.633-15 6.822-15 7.295-16 1.685-19
 *OH             3.561 -9 2.923 -9 8.845-10 8.763-12
 *O2             2.698-16 1.939-16 2.763-17 1.410-20
 C(gr)           1.0874-1 1.1017-1 1.2174-1 1.8416-1

  * THERMODYNAMIC PROPERTIES FITTED TO 20000.K

              THEORETICAL ROCKET PERFORMANCE ASSUMING EQUILIBRIUM

            COMPOSITION DURING EXPANSION FROM FINITE AREA COMBUSTOR

 Pin =  1469.6 PSIA
 Ac/At =  2.0000      Pinj/Pinf =  1.053717
 CASE = test___________

             REACTANT                       MOLES         ENERGY      TEMP
                                                         KJ/KG-MOL      K
 FUEL        RP-1                       100.0000000    -24717.700    298.150
 OXIDANT     O2(L)                      100.0000000    -12979.000     90.170

 O/F=    0.87325  %FUEL= 53.383221  R,EQ.RATIO= 3.900000  PHI,EQ.RATIO= 3.900000

                 INJECTOR  COMB END  THROAT     EXIT
 Pinj/P            1.0000   1.1167   1.8584   14.931
 P, BAR            101.33   90.735   54.524   6.7860
 T, K             1519.36  1501.99  1399.72  1115.80
 RHO, KG/CU M    1.3241 1 1.1991 1 7.8355 0 1.3019 0
 H, KJ/KG        -1133.20 -1177.36 -1546.86 -2798.13
 U, KJ/KG        -1898.42 -1934.07 -2242.71 -3319.38
 G, KJ/KG        -18897.1 -18777.8 -17948.9 -15873.2
 S, KJ/(KG)(K)    11.6917  11.7181  11.7181  11.7181

 M, (1/n)          16.508   16.503   16.725   17.798
 MW, MOL WT        14.525   14.496   14.493   14.319
 (dLV/dLP)t      -1.06912 -1.06919 -1.07788 -1.10503
 (dLV/dLT)p        1.6311   1.6422   1.8036   2.4741
 Cp, KJ/(KG)(K)    5.5719   5.6726   6.8298  12.5978
 GAMMAs            1.2068   1.2053   1.1889   1.1389
 SON VEL,M/SEC      961.0    955.0    909.6    770.5
 MACH NUMBER        0.000    0.311    1.000    2.368

 PERFORMANCE PARAMETERS

 Ae/At                      2.0000   1.0000   3.0000
 CSTAR, M/SEC               1349.2   1349.2   1349.2
 CF                         0.2203   0.6741   1.3525
 Ivac, M/SEC                2843.4   1674.6   2110.4
 Isp, M/SEC                  297.2    909.6   1824.8

 MOLE FRACTIONS

 *CH             1.236-16 7.581-17 2.973-18 1.754-23
 CH2             9.900-12 6.984-12 7.283-13 1.534-16
 CH3             3.1272-6 2.6234-6 9.0181-7 1.5239-8
 CH2OH           3.525-10 2.762-10 7.407-11 3.861-13
 CH3O            1.630-11 1.234-11 2.668-12 6.418-15
 CH4             4.7717-2 4.6653-2 4.6577-2 4.0075-2
 CH3OH           3.3972-7 3.0033-7 1.8974-7 2.2725-8
 *CO             3.7752-1 3.7574-1 3.5944-1 2.6968-1
 *CO2            9.2165-3 9.5249-3 1.4003-2 4.1657-2
 COOH            9.576-10 7.972-10 3.203-10 6.937-12
 C2H             3.216-14 2.029-14 9.530-16 1.101-20
 C2H2,acetylene  4.7501-6 3.8816-6 1.0360-6 7.3495-9
 C2H2,vinylidene 1.420-11 9.829-12 9.060-13 1.183-16
 CH2CO,ketene    3.4348-6 2.9138-6 1.1917-6 3.2477-8
 O(CH)2O         1.251-11 9.850-12 3.020-12 2.243-14
 HO(CO)2OH       1.645-15 1.341-15 7.482-16 3.235-17
 C2H3,vinyl      7.370-10 5.390-10 7.697-11 4.841-14
 CH3CO,acetyl    2.100 -9 1.631 -9 4.146-10 1.800-12
 C2H4            5.4400-5 4.7407-5 2.2647-5 1.2201-6
 C2H4O,ethylen-o 2.094-12 1.611-12 4.202-13 1.877-15
 CH3CHO,ethanal  2.4658-7 2.1078-7 1.0747-7 5.8030-9
 CH3COOH         3.148 -9 2.739 -9 1.889 -9 2.568-10
 OHCH2COOH       7.908-14 6.274-14 2.904-14 7.092-16
 C2H5            1.385 -8 1.080 -8 2.758 -9 1.330-11
 C2H6            1.9811-5 1.7675-5 1.1651-5 1.8196-6
 C2H5OH          1.233 -9 1.013 -9 4.733-10 1.610-11
 CH3OCH3         3.734-12 2.931-12 1.029-12 1.196-14
 C2O             3.382-13 2.323-13 2.080-14 2.245-18
 C3H3,1-propynl  1.810-14 1.156-14 6.946-16 1.698-20
 C3H3,2-propynl  7.745-10 5.473-10 6.281-11 1.751-14
 C3H4,allene     1.450 -8 1.110 -8 2.314 -9 5.634-12
 C3H4,propyne    4.091 -8 3.151 -8 6.837 -9 1.925-11
 C3H4,cyclo-     1.243-11 8.804-12 1.115-12 4.227-16
 C3H5,allyl      1.496 -9 1.113 -9 2.107-10 3.378-13
 C3H6,propylene  3.0059-7 2.4359-7 8.6830-8 1.3607-9
 C3H6,cyclo-     5.467-10 4.292-10 1.250-10 9.353-13
 C3H6O,propylox  1.008-14 7.259-15 1.471-15 2.225-18
 C3H6O,acetone   7.554-10 6.116-10 2.615-10 6.325-12
 C3H6O,propanal  2.441-10 1.910-10 6.576-11 7.165-13
 C3H7,n-propyl   1.557-11 1.112-11 1.933-12 1.923-15
 C3H7,i-propyl   1.600-11 1.156-11 2.154-12 2.757-15
 C3H8            2.346 -8 1.923 -8 8.746 -9 2.980-10
 C3H8O,1propanol 1.338-12 1.011-12 3.299-13 2.540-15
 C3H8O,2propanol 1.585-12 1.212-12 4.265-13 4.399-15
 C3O2            4.247-10 3.326-10 8.307-11 3.262-13
 C4H2,butadiyne  2.055-11 1.367-11 9.787-13 5.043-17
 C4H4,1,3-cyclo- 3.207-15 2.057-15 1.385-16 4.933-21
 C4H6,butadiene  1.391 -9 1.029 -9 2.049-10 3.724-13
 C4H6,1butyne    5.214-11 3.687-11 5.499-12 3.325-15
 C4H6,2butyne    6.411-11 4.634-11 7.949-12 8.046-15
 C4H6,cyclo-     1.505-12 1.075-12 1.707-13 1.324-16
 C4H8,1-butene   3.317-10 2.470-10 6.089-11 2.095-13
 C4H8,cis2-buten 1.626-10 1.223-10 3.213-11 1.392-13
 C4H8,tr2-butene 1.827-10 1.375-10 3.618-11 1.588-13
 C4H8,isobutene  2.216-10 1.676-10 4.554-11 2.254-13
 C4H8,cyclo-     9.864-14 7.163-14 1.506-14 2.901-17
 C4H9,n-butyl    4.902-14 3.253-14 4.185-15 1.184-18
 C4H9,i-butyl    3.124-14 2.090-14 2.826-15 9.658-19
 C4H9,s-butyl    3.309-14 2.199-14 2.849-15 8.198-19
 C4H9,t-butyl    1.164-14 7.925-15 1.196-15 6.022-19
 C4H10,n-butane  2.815-11 2.118-11 6.608-12 4.818-14
 C4H10,isobutane 1.052-11 7.972-12 2.614-12 2.299-14
 C5H6,1,3cyclo-  2.425-11 1.765-11 3.165-12 3.861-15
 C5H8,cyclo-     9.783-13 7.060-13 1.426-13 2.367-16
 C5H10,1-pentene 3.106-13 2.128-13 3.648-14 2.781-17
 C5H10,cyclo-    1.209-14 8.736-15 2.119-15 6.095-18
 C5H12,n-pentane 2.882-14 1.988-14 4.251-15 6.664-18
 C5H12,i-pentane 2.843-14 1.966-14 4.270-15 7.352-18
 CH3C(CH3)2CH3   1.664-15 1.152-15 2.540-16 5.001-19
 C6H5,phenyl     4.613-15 2.939-15 2.065-16 8.050-21
 C6H5O,phenoxy   3.453-16 2.294-16 2.549-17 4.391-21
 C6H6            3.111-10 2.379-10 5.849-11 2.302-13
 C6H5OH,phenol   1.565-13 1.126-13 2.272-14 3.369-17
 C6H10,cyclo-    3.596-16 2.416-16 3.675-17 1.884-20
 C6H12,1-hexene  2.887-16 1.819-16 2.169-17 3.659-21
 C7H7,benzyl     1.279-14 8.209-15 7.213-16 5.745-20
 C7H8            2.511-12 1.787-12 3.299-13 3.857-16
 C7H8O,cresol-mx 1.016-15 6.812-16 1.037-16 4.669-20
 C8H8,styrene    1.955-14 1.266-14 1.280-15 1.582-19
 C8H10,ethylbenz 3.112-15 2.031-15 2.556-16 6.256-20
 C10H8,naphthale 8.525-16 5.511-16 5.508-17 6.569-21
 *H              1.3360-6 1.1493-6 3.9233-7 7.8446-9
 HCO             8.520 -8 7.003 -8 2.149 -8 2.147-10
 HCCO            2.433-11 1.763-11 2.422-12 1.200-15
 *H2             4.1805-1 4.1881-1 4.1167-1 3.8888-1
 HCHO,formaldehy 8.0827-6 7.2607-6 4.2822-6 4.5890-7
 HCOOH           5.9141-7 5.4197-7 4.3951-7 1.2626-7
 H2O             2.7240-2 2.7565-2 3.4810-2 6.4203-2
 H2O2            1.014-15 7.462-16 1.489-16 2.203-19
 *O              7.256-15 5.149-15 5.690-16 1.398-19
 *OH             3.118 -9 2.562 -9 7.855-10 7.962-12
 *O2             2.194-16 1.578-16 2.294-17 1.208-20
 C(gr)           1.2016-1 1.2162-1 1.3346-1 1.9550-1

  * THERMODYNAMIC PROPERTIES FITTED TO 20000.K

              THEORETICAL ROCKET PERFORMANCE ASSUMING EQUILIBRIUM

            COMPOSITION DURING EXPANSION FROM FINITE AREA COMBUSTOR

 Pin =  1469.6 PSIA
 Ac/At =  2.0000      Pinj/Pinf =  1.053593
 CASE = test___________

             REACTANT                       MOLES         ENERGY      TEMP
                                                         KJ/KG-MOL      K
 FUEL        RP-1                       100.0000000    -24717.700    298.150
 OXIDANT     O2(L)                      100.0000000    -12979.000     90.170

 O/F=    0.85142  %FUEL= 54.012696  R,EQ.RATIO= 4.000000  PHI,EQ.RATIO= 4.000000

                 INJECTOR  COMB END  THROAT     EXIT
 Pinj/P            1.0000   1.1164   1.8560   14.881
 P, BAR            101.33   90.757   54.594   6.8088
 T, K             1507.05  1490.06  1390.71  1111.76
 RHO, KG/CU M    1.3421 1 1.2154 1 7.9381 0 1.3170 0
 H, KJ/KG        -1141.77 -1185.25 -1549.42 -2787.34
 U, KJ/KG        -1896.77 -1932.00 -2237.18 -3304.34
 G, KJ/KG        -18700.8 -18585.4 -17789.5 -15769.9
 S, KJ/(KG)(K)    11.6513  11.6775  11.6775  11.6775

 M, (1/n)          16.597   16.591   16.813   17.879
 MW, MOL WT        14.421   14.391   14.381   14.191
 (dLV/dLP)t      -1.07253 -1.07261 -1.08106 -1.10656
 (dLV/dLT)p        1.6690   1.6806   1.8420   2.4947
 Cp, KJ/(KG)(K)    5.7926   5.8980   7.0651  12.7127
 GAMMAs            1.2025   1.2010   1.1854   1.1378
 SON VEL,M/SEC      952.8    947.0    902.9    767.0
 MACH NUMBER        0.000    0.311    1.000    2.365

 PERFORMANCE PARAMETERS

 Ae/At                      2.0000   1.0000   3.0000
 CSTAR, M/SEC               1341.8   1341.8   1341.8
 CF                         0.2198   0.6730   1.3521
 Ivac, M/SEC                2827.3   1664.6   2099.1
 Isp, M/SEC                  294.9    902.9   1814.1

 MOLE FRACTIONS

 CH2             7.650-12 5.409-12 5.827-13 1.309-16
 CH3             2.8398-6 2.3848-6 8.3021-7 1.4397-8
 CH2OH           3.245-10 2.545-10 6.881-11 3.634-13
 CH3O            1.464-11 1.110-11 2.428-12 5.961-15
 CH4             5.0203-2 4.9089-2 4.8754-2 4.1582-2
 CH3OH           3.5411-7 3.1308-7 1.9644-7 2.3158-8
 *CO             3.6606-1 3.6425-1 3.4770-1 2.5887-1
 *CO2            9.7632-3 1.0080-2 1.4581-2 4.1715-2
 COOH            9.053-10 7.538-10 3.028-10 6.509-12
 C2H             2.209-14 1.398-14 6.881-16 8.716-21
 C2H2,acetylene  4.0722-6 3.3321-6 9.0649-7 6.6802-9
 C2H2,vinylidene 1.083-11 7.511-12 7.163-13 1.001-16
 CH2CO,ketene    3.2164-6 2.7301-6 1.1219-6 3.0771-8
 O(CH)2O         1.182-11 9.312-12 2.859-12 2.113-14
 HO(CO)2OH       1.803-15 1.468-15 8.004-16 3.258-17
 C2H3,vinyl      6.074-10 4.450-10 6.518-11 4.311-14
 CH3CO,acetyl    1.921 -9 1.494 -9 3.832-10 1.689-12
 C2H4            5.2766-5 4.6017-5 2.2097-5 1.2045-6
 C2H4O,ethylen-o 1.979-12 1.524-12 4.000-13 1.803-15
 CH3CHO,ethanal  2.5099-7 2.1463-7 1.0903-7 5.8301-9
 CH3COOH         3.451 -9 3.001 -9 2.038 -9 2.671-10
 OHCH2COOH       8.642-14 6.855-14 3.117-14 7.280-16
 C2H5            1.291 -8 1.008 -8 2.605 -9 1.287-11
 C2H6            2.1123-5 1.8854-5 1.2369-5 1.9178-6
 C2H5OH          1.319 -9 1.083 -9 5.025-10 1.680-11
 CH3OCH3         3.869-12 3.039-12 1.063-12 1.225-14
 C2O             2.524-13 1.737-13 1.606-14 1.839-18
 C3H3,1-propynl  1.356-14 8.683-15 5.416-16 1.427-20
 C3H3,2-propynl  6.230-10 4.412-10 5.209-11 1.537-14
 C3H4,allene     1.283 -8 9.839 -9 2.087 -9 5.261-12
 C3H4,propyne    3.637 -8 2.805 -8 6.189 -9 1.802-11
 C3H4,cyclo-     1.042-11 7.389-12 9.593-13 3.818-16
 C3H5,allyl      1.349 -9 1.005 -9 1.934-10 3.205-13
 C3H6,propylene  2.9945-7 2.4291-7 8.6941-8 1.3762-9
 C3H6,cyclo-     5.325-10 4.186-10 1.228-10 9.336-13
 C3H6O,propylox  9.828-15 7.086-15 1.442-15 2.196-18
 C3H6O,acetone   8.000-10 6.480-10 2.752-10 6.561-12
 C3H6O,propanal  2.524-10 1.976-10 6.781-11 7.327-13
 C3H7,n-propyl   1.475-11 1.056-11 1.856-12 1.895-15
 C3H7,i-propyl   1.529-11 1.106-11 2.083-12 2.728-15
 C3H8            2.547 -8 2.089 -8 9.457 -9 3.201-10
 C3H8O,1propanol 1.459-12 1.103-12 3.571-13 2.704-15
 C3H8O,2propanol 1.743-12 1.333-12 4.650-13 4.708-15
 C3O2            3.699-10 2.899-10 7.307-11 2.900-13
 C4H2,butadiyne  1.524-11 1.016-11 7.555-13 4.196-17
 C4H4,1,3-cyclo- 2.505-15 1.611-15 1.121-16 4.271-21
 C4H6,butadiene  1.299 -9 9.625-10 1.941-10 3.625-13
 C4H6,1butyne    4.718-11 3.342-11 5.068-12 3.173-15
 C4H6,2butyne    5.891-11 4.265-11 7.424-12 7.747-15
 C4H6,cyclo-     1.371-12 9.809-13 1.583-13 1.269-16
 C4H8,1-butene   3.365-10 2.509-10 6.211-11 2.160-13
 C4H8,cis2-buten 1.661-10 1.251-10 3.297-11 1.441-13
 C4H8,tr2-butene 1.867-10 1.407-10 3.714-11 1.644-13
 C4H8,isobutene  2.273-10 1.721-10 4.689-11 2.339-13
 C4H8,cyclo-     9.832-14 7.151-14 1.513-14 2.961-17
 C4H9,n-butyl    4.767-14 3.170-14 4.122-15 1.194-18
 C4H9,i-butyl    3.055-14 2.047-14 2.797-15 9.779-19
 C4H9,s-butyl    3.221-14 2.144-14 2.809-15 8.274-19
 C4H9,t-butyl    1.153-14 7.859-15 1.196-15 6.138-19
 C4H10,n-butane  3.110-11 2.342-11 7.275-12 5.275-14
 C4H10,isobutane 1.168-11 8.864-12 2.891-12 2.525-14
 C5H6,1,3cyclo-  2.239-11 1.632-11 2.969-12 3.731-15
 C5H8,cyclo-     9.708-13 7.017-13 1.428-13 2.409-16
 C5H10,1-pentene 3.212-13 2.204-13 3.793-14 2.923-17
 C5H10,cyclo-    1.298-14 9.397-15 2.278-15 6.563-18
 C5H12,n-pentane 3.238-14 2.238-14 4.765-15 7.436-18
 C5H12,i-pentane 3.199-14 2.215-14 4.794-15 8.220-18
 CH3C(CH3)2CH3   1.874-15 1.300-15 2.857-16 5.609-19
 C6H5,phenyl     3.728-15 2.381-15 1.725-16 7.145-21
 C6H5O,phenoxy   3.059-16 2.036-16 2.298-17 4.073-21
 C6H6            2.974-10 2.277-10 5.653-11 2.272-13
 C6H5OH,phenol   1.525-13 1.099-13 2.227-14 3.325-17
 C6H10,cyclo-    3.668-16 2.469-16 3.779-17 1.968-20
 C6H12,1-hexene  3.043-16 1.921-16 2.299-17 3.920-21
 C7H7,benzyl     1.123-14 7.231-15 6.495-16 5.412-20
 C7H8            2.467-12 1.759-12 3.274-13 3.900-16
 C7H8O,cresol-mx 1.018-15 6.837-16 1.044-16 4.725-20
 C8H8,styrene    1.798-14 1.167-14 1.199-15 1.537-19
 C8H10,ethylbenz 3.109-15 2.033-15 2.581-16 6.444-20
 C10H8,naphthale 7.827-16 5.071-16 5.157-17 6.378-21
 *H              1.1422-6 9.8376-7 3.4220-7 7.1013-9
 HCO             7.504 -8 6.173 -8 1.917 -8 1.953-10
 HCCO            1.960-11 1.423-11 2.001-12 1.034-15
 *H2             4.1388-1 4.1469-1 4.0779-1 3.8596-1
 HCHO,formaldehy 7.8813-6 7.0811-6 4.1743-6 4.4560-7
 HCOOH           6.2216-7 5.6993-7 4.5641-7 1.2704-7
 H2O             2.8893-2 2.9223-2 3.6482-2 6.5604-2
 H2O2            9.136-16 6.731-16 1.353-16 2.016-19
 *O              5.540-15 3.939-15 4.483-16 1.162-19
 *OH             2.745 -9 2.258 -9 7.006-10 7.243-12
 *O2             1.799-16 1.296-16 1.916-17 1.036-20
 C(gr)           1.3110-1 1.3259-1 1.4465-1 2.0627-1

  * THERMODYNAMIC PROPERTIES FITTED TO 20000.K