

         NASA-GLENN CHEMICAL EQUILIBRIUM PROGRAM CEA2, FEBRUARY 5, 2004
                   BY  BONNIE MCBRIDE AND SANFORD GORDON
      REFS: NASA RP-1311, PART I, 1994 AND NASA RP-1311, PART II, 1996

 *******************************************************************************

  
 ### CEA analysis performed on Wed 20-Apr-2022 14:59:33
  
 # Problem Type: "Rocket" (Finite Area Combustor)
  
 prob case=test___________2464 ro equilibrium    fac
  
 !Contraction Ratio:
 ac/at=2
  
 # Pressure (1 value):
 p,bar= 22
 # Supersonic Area Ratio (1 value):
 supar= 1.2
  
 # Equivalence based on Fuel/Oxid. wt ratio (Eq 9.19*) (20 values):
 phi= 1, 1.1, 1.2, 1.3, 1.4, 1.5, 1.6, 1.7, 1.8, 1.9, 2, 2.1, 2.2, 2.3, 2.4, 2.5,
  2.6, 2.7, 2.8, 2.9
  
 # You selected the following fuels and oxidizers:
 reac
 fuel RP-1             mole=100.0000
 oxid O2(L)            mole=100.0000
  
 # You selected these options for output:
 # short version of output
 output short
 # Proportions of any products will be expressed as Mole Fractions.
 # Heat will be expressed as siunits
 output siunits
 # Trace variable:
 output trace=1e-16
  
 # Input prepared by this script:/var/www/sites/cearun.grc.nasa.gov/cgi-bin/CEARU
 N/prepareInputFile.cgi
  
 ### IMPORTANT:  The following line is the end of your CEA input file!
 end

              THEORETICAL ROCKET PERFORMANCE ASSUMING EQUILIBRIUM

            COMPOSITION DURING EXPANSION FROM FINITE AREA COMBUSTOR

 Pin =   319.1 PSIA
 Ac/At =  2.0000      Pinj/Pinf =  1.051270
 CASE = test___________

             REACTANT                       MOLES         ENERGY      TEMP
                                                         KJ/KG-MOL      K
 FUEL        RP-1                       100.0000000    -24717.700    298.150
 OXIDANT     O2(L)                      100.0000000    -12979.000     90.170

 O/F=    3.40567  %FUEL= 22.698042  R,EQ.RATIO= 1.000000  PHI,EQ.RATIO= 1.000000

                 INJECTOR  COMB END  THROAT     EXIT
 Pinj/P            1.0000   1.1112   1.8104   3.3086
 P, BAR            22.000   19.799   12.152   6.6494
 T, K             3509.97  3486.71  3352.59  3199.23
 RHO, KG/CU M    1.9076 0 1.7297 0 1.1194 0 6.5252-1
 H, KJ/KG         -714.97  -778.60 -1322.72 -1956.94
 U, KJ/KG        -1868.27 -1923.25 -2408.37 -2975.98
 G, KJ/KG        -39234.9 -39100.5 -38170.5 -37119.2
 S, KJ/(KG)(K)    10.9744  10.9908  10.9908  10.9908

 M, (1/n)          25.305   25.327   25.676   26.103
 (dLV/dLP)t      -1.05876 -1.05864 -1.05565 -1.05190
 (dLV/dLT)p        2.0603   2.0653   2.0543   2.0338
 Cp, KJ/(KG)(K)    8.2358   8.3017   8.4103   8.4929
 GAMMAs            1.1243   1.1236   1.1196   1.1151
 SON VEL,M/SEC     1138.7   1134.1   1102.5   1066.0
 MACH NUMBER        0.000    0.315    1.000    1.478

 PERFORMANCE PARAMETERS

 Ae/At                      2.0000   1.0000   1.2000
 CSTAR, M/SEC               1695.8   1695.8   1695.8
 CF                         0.2104   0.6501   0.9294
 Ivac, M/SEC                3565.4   2087.2   2222.6
 Isp, M/SEC                  356.7   1102.5   1576.0

 MOLE FRACTIONS

 *C              4.015-10 3.482-10 1.349-10 4.127-11
 *CH             8.292-11 7.009-11 2.458-11 6.649-12
 CH2             6.576-11 5.535-11 1.996-11 5.591-12
 CH3             4.459-11 3.760-11 1.449-11 4.418-12
 CH2OH           2.706-11 2.249-11 8.453-12 2.494-12
 CH3O            8.602-12 7.062-12 2.470-12 6.674-13
 CH4             5.325-12 4.453-12 1.725-12 5.328-13
 CH3OH           8.222-13 6.745-13 2.479-13 7.132-14
 CH3OOH          1.514-16 1.157-16 2.966-17 5.443-18
 *CO             2.1683-1 2.1613-1 2.0694-1 1.9495-1
 *CO2            1.9411-1 1.9518-1 2.1004-1 2.2897-1
 COOH            8.1147-6 7.4253-6 4.7751-6 2.7433-6
 *C2             1.224-15 9.524-16 2.043-16 2.994-17
 C2H             1.425-14 1.115-14 2.603-15 4.248-16
 C2H2,acetylene  6.847-14 5.481-14 1.554-14 3.240-15
 C2H2,vinylidene 5.840-16 4.498-16 1.010-16 1.569-17
 CH2CO,ketene    1.514-12 1.226-12 3.975-13 9.769-14
 O(CH)2O         4.741-14 3.770-14 1.167-14 2.705-15
 HO(CO)2OH       5.527-14 4.433-14 1.642-14 4.766-15
 CH3CO,acetyl    8.068-16 6.125-16 1.421-16 2.306-17
 C2O             4.442-11 3.702-11 1.279-11 3.396-12
 C3O2            5.021-14 3.975-14 1.142-14 2.414-15
 *H              2.5904-2 2.5881-2 2.3433-2 2.0630-2
 HCO             6.0084-6 5.4810-6 3.2451-6 1.6819-6
 HCCO            2.248-12 1.824-12 5.672-13 1.321-13
 HO2             1.9741-4 1.8654-4 1.3705-4 9.2818-5
 *H2             4.0350-2 4.0282-2 3.8307-2 3.5879-2
 HCHO,formaldehy 8.1155-8 7.2585-8 4.0289-8 1.9310-8
 HCOOH           5.5235-7 4.9606-7 3.0092-7 1.6107-7
 H2O             2.9960-1 3.0045-1 3.1299-1 3.2810-1
 H2O2            1.4584-5 1.3515-5 9.3130-6 5.8307-6
 *O              3.3121-2 3.2908-2 2.9091-2 2.4799-2
 *OH             9.5326-2 9.4497-2 8.6944-2 7.7952-2
 *O2             9.4526-2 9.4456-2 9.2096-2 8.8613-2
 O3              5.1774-7 4.7006-7 2.7491-7 1.4101-7

  * THERMODYNAMIC PROPERTIES FITTED TO 20000.K

              THEORETICAL ROCKET PERFORMANCE ASSUMING EQUILIBRIUM

            COMPOSITION DURING EXPANSION FROM FINITE AREA COMBUSTOR

 Pin =   319.1 PSIA
 Ac/At =  2.0000      Pinj/Pinf =  1.051312
 CASE = test___________

             REACTANT                       MOLES         ENERGY      TEMP
                                                         KJ/KG-MOL      K
 FUEL        RP-1                       100.0000000    -24717.700    298.150
 OXIDANT     O2(L)                      100.0000000    -12979.000     90.170

 O/F=    3.09606  %FUEL= 24.413703  R,EQ.RATIO= 1.100000  PHI,EQ.RATIO= 1.100000

                 INJECTOR  COMB END  THROAT     EXIT
 Pinj/P            1.0000   1.1113   1.8113   3.3118
 P, BAR            22.000   19.797   12.146   6.6428
 T, K             3524.09  3500.51  3364.24  3208.36
 RHO, KG/CU M    1.8445 0 1.6725 0 1.0825 0 6.3111-1
 H, KJ/KG         -738.36  -804.21 -1367.22 -2023.06
 U, KJ/KG        -1931.10 -1987.93 -2489.32 -3075.63
 G, KJ/KG        -40264.8 -40125.5 -39157.8 -38062.6
 S, KJ/(KG)(K)    11.2161  11.2330  11.2330  11.2330

 M, (1/n)          24.566   24.588   24.928   25.344
 (dLV/dLP)t      -1.05835 -1.05822 -1.05501 -1.05096
 (dLV/dLT)p        2.0449   2.0497   2.0349   2.0086
 Cp, KJ/(KG)(K)    8.3272   8.3931   8.4807   8.5279
 GAMMAs            1.1256   1.1249   1.1209   1.1164
 SON VEL,M/SEC     1158.7   1153.9   1121.5   1084.0
 MACH NUMBER        0.000    0.315    1.000    1.479

 PERFORMANCE PARAMETERS

 Ae/At                      2.0000   1.0000   1.2000
 CSTAR, M/SEC               1723.8   1723.8   1723.8
 CF                         0.2105   0.6506   0.9299
 Ivac, M/SEC                3624.5   2122.0   2259.6
 Isp, M/SEC                  362.9   1121.5   1602.9

 MOLE FRACTIONS

 *C              6.324-10 5.483-10 2.149-10 6.676-11
 *CH             1.456-10 1.231-10 4.389-11 1.216-11
 CH2             1.270-10 1.070-10 3.950-11 1.144-11
 CH3             9.444-11 7.972-11 3.168-11 1.009-11
 CH2OH           4.617-11 3.840-11 1.475-11 4.487-12
 CH3O            1.478-11 1.214-11 4.337-12 1.207-12
 CH4             1.244-11 1.042-11 4.188-12 1.364-12
 CH3OH           1.552-12 1.274-12 4.815-13 1.442-13
 CH3OOH          2.379-16 1.820-16 4.740-17 8.896-18
 *CO             2.5078-1 2.5011-1 2.4193-1 2.3117-1
 *CO2            1.7833-1 1.7937-1 1.9351-1 2.1153-1
 COOH            8.6595-6 7.9255-6 5.1201-6 2.9586-6
 *C2             2.790-15 2.173-15 4.799-16 7.329-17
 C2H             3.556-14 2.785-14 6.742-15 1.159-15
 C2H2,acetylene  1.850-13 1.483-13 4.397-14 9.763-15
 C2H2,vinylidene 1.615-15 1.245-15 2.917-16 4.817-17
 CH2CO,ketene    3.244-12 2.631-12 8.847-13 2.291-13
 O(CH)2O         8.199-14 6.527-14 2.077-14 5.006-15
 HO(CO)2OH       6.063-14 4.866-14 1.824-14 5.377-15
 CH3CO,acetyl    1.972-15 1.499-15 3.621-16 6.226-17
 C2O             7.763-11 6.475-11 2.293-11 6.299-12
 C3O2            9.804-14 7.775-14 2.319-14 5.163-15
 *H              3.0308-2 3.0277-2 2.7465-2 2.4241-2
 HCO             8.0447-6 7.3420-6 4.4020-6 2.3220-6
 HCCO            4.381-12 3.560-12 1.140-12 2.771-13
 HO2             1.5228-4 1.4375-4 1.0381-4 6.8533-5
 *H2             5.1848-2 5.1772-2 4.9673-2 4.7115-2
 HCHO,formaldehy 1.2069-7 1.0803-7 6.1081-8 3.0050-8
 HCOOH           6.5431-7 5.8792-7 3.6042-7 1.9573-7
 H2O             3.0656-1 3.0743-1 3.2057-1 3.3639-1
 H2O2            1.2495-5 1.1570-5 7.8841-6 4.8533-6
 *O              2.8284-2 2.8079-2 2.4490-2 2.0466-2
 *OH             8.9480-2 8.8662-2 8.1040-2 7.1941-2
 *O2             6.4236-2 6.4120-2 6.1201-2 5.7066-2
 O3              2.9761-7 2.6966-7 1.5230-7 7.4227-8

  * THERMODYNAMIC PROPERTIES FITTED TO 20000.K

              THEORETICAL ROCKET PERFORMANCE ASSUMING EQUILIBRIUM

            COMPOSITION DURING EXPANSION FROM FINITE AREA COMBUSTOR

 Pin =   319.1 PSIA
 Ac/At =  2.0000      Pinj/Pinf =  1.051379
 CASE = test___________

             REACTANT                       MOLES         ENERGY      TEMP
                                                         KJ/KG-MOL      K
 FUEL        RP-1                       100.0000000    -24717.700    298.150
 OXIDANT     O2(L)                      100.0000000    -12979.000     90.170

 O/F=    2.83806  %FUEL= 26.054862  R,EQ.RATIO= 1.200000  PHI,EQ.RATIO= 1.200000

                 INJECTOR  COMB END  THROAT     EXIT
 Pinj/P            1.0000   1.1114   1.8127   3.3178
 P, BAR            22.000   19.794   12.136   6.6310
 T, K             3524.11  3500.24  3360.71  3200.49
 RHO, KG/CU M    1.7920 0 1.6247 0 1.0517 0 6.1334-1
 H, KJ/KG         -760.72  -828.60 -1408.63 -2083.77
 U, KJ/KG        -1988.43 -2046.92 -2562.55 -3164.91
 G, KJ/KG        -41076.1 -40932.0 -39913.4 -38752.9
 S, KJ/(KG)(K)    11.4399  11.4573  11.4573  11.4573

 M, (1/n)          23.867   23.888   24.215   24.614
 (dLV/dLP)t      -1.05489 -1.05472 -1.05090 -1.04598
 (dLV/dLT)p        1.9797   1.9834   1.9554   1.9093
 Cp, KJ/(KG)(K)    8.1267   8.1853   8.1850   8.0929
 GAMMAs            1.1276   1.1268   1.1230   1.1188
 SON VEL,M/SEC     1176.6   1171.7   1138.3   1099.8
 MACH NUMBER        0.000    0.314    1.000    1.479

 PERFORMANCE PARAMETERS

 Ae/At                      2.0000   1.0000   1.2000
 CSTAR, M/SEC               1747.8   1747.8   1747.8
 CF                         0.2108   0.6513   0.9307
 Ivac, M/SEC                3675.1   2152.0   2291.3
 Isp, M/SEC                  368.4   1138.3   1626.7

 MOLE FRACTIONS

 *C              8.926-10 7.733-10 3.019-10 9.307-11
 *CH             2.312-10 1.953-10 7.000-11 1.948-11
 CH2             2.270-10 1.912-10 7.176-11 2.126-11
 CH3             1.898-10 1.604-10 6.561-11 2.179-11
 CH2OH           7.432-11 6.183-11 2.418-11 7.544-12
 CH3O            2.379-11 1.955-11 7.098-12 2.021-12
 CH4             2.813-11 2.359-11 9.875-12 3.412-12
 CH3OH           2.810-12 2.310-12 8.981-13 2.801-13
 CH3OOH          3.451-16 2.639-16 6.935-17 1.316-17
 *CO             2.8347-1 2.8287-1 2.7599-1 2.6690-1
 *CO2            1.6144-1 1.6244-1 1.7543-1 1.9195-1
 COOH            8.8197-6 8.0712-6 5.2096-6 3.0019-6
 *C2             5.559-15 4.329-15 9.687-16 1.504-16
 C2H             7.970-14 6.245-14 1.552-14 2.768-15
 C2H2,acetylene  4.664-13 3.746-13 1.158-13 2.735-14
 C2H2,vinylidene 4.071-15 3.144-15 7.635-16 1.328-16
 CH2CO,ketene    6.550-12 5.320-12 1.853-12 5.048-13
 O(CH)2O         1.326-13 1.057-13 3.441-14 8.574-15
 HO(CO)2OH       6.289-14 5.050-14 1.907-14 5.668-15
 C2H3,vinyl      2.015-16 1.513-16 3.314-17 5.095-18
 CH3CO,acetyl    4.480-15 3.411-15 8.554-16 1.553-16
 C2O             1.239-10 1.033-10 3.714-11 1.041-11
 C3O2            1.768-13 1.404-13 4.322-14 1.006-14
 *H              3.4099-2 3.4048-2 3.0789-2 2.7025-2
 HCO             1.0231-5 9.3384-6 5.6411-6 3.0047-6
 HCCO            7.864-12 6.394-12 2.096-12 5.261-13
 HO2             1.0990-4 1.0356-4 7.2615-5 4.5806-5
 *H2             6.5623-2 6.5544-2 6.3460-2 6.0982-2
 HCHO,formaldehy 1.7268-7 1.5465-7 8.8932-8 4.4811-8
 HCOOH           7.4972-7 6.7390-7 4.1671-7 2.2895-7
 H2O             3.1074-1 3.1164-1 3.2524-1 3.4156-1
 H2O2            1.0145-5 9.3818-6 6.2658-6 3.7379-6
 *O              2.2654-2 2.2455-2 1.9096-2 1.5347-2
 *OH             8.0626-2 7.9822-2 7.1998-2 6.2596-2
 *O2             4.1205-2 4.1058-2 3.7905-2 3.3585-2
 O3              1.5291-7 1.3810-7 7.3697-8 3.2943-8

  * THERMODYNAMIC PROPERTIES FITTED TO 20000.K

              THEORETICAL ROCKET PERFORMANCE ASSUMING EQUILIBRIUM

            COMPOSITION DURING EXPANSION FROM FINITE AREA COMBUSTOR

 Pin =   319.1 PSIA
 Ac/At =  2.0000      Pinj/Pinf =  1.051483
 CASE = test___________

             REACTANT                       MOLES         ENERGY      TEMP
                                                         KJ/KG-MOL      K
 FUEL        RP-1                       100.0000000    -24717.700    298.150
 OXIDANT     O2(L)                      100.0000000    -12979.000     90.170

 O/F=    2.61974  %FUEL= 27.626269  R,EQ.RATIO= 1.300000  PHI,EQ.RATIO= 1.300000

                 INJECTOR  COMB END  THROAT     EXIT
 Pinj/P            1.0000   1.1117   1.8152   3.3281
 P, BAR            22.000   19.790   12.120   6.6103
 T, K             3508.80  3484.63  3340.04  3172.39
 RHO, KG/CU M    1.7493 0 1.5859 0 1.0268 0 5.9897-1
 H, KJ/KG         -782.14  -851.81 -1446.91 -2138.87
 U, KJ/KG        -2039.79 -2099.71 -2627.26 -3242.49
 G, KJ/KG        -41648.3 -41499.2 -40407.7 -39144.1
 S, KJ/(KG)(K)    11.6468  11.6648  11.6648  11.6648

 M, (1/n)          23.197   23.217   23.528   23.900
 (dLV/dLP)t      -1.04845 -1.04820 -1.04343 -1.03721
 (dLV/dLT)p        1.8656   1.8673   1.8175   1.7396
 Cp, KJ/(KG)(K)    7.6146   7.6581   7.5003   7.1670
 GAMMAs            1.1304   1.1297   1.1264   1.1232
 SON VEL,M/SEC     1192.3   1187.4   1153.1   1113.4
 MACH NUMBER        0.000    0.314    1.000    1.480

 PERFORMANCE PARAMETERS

 Ae/At                      2.0000   1.0000   1.2000
 CSTAR, M/SEC               1767.2   1767.2   1767.2
 CF                         0.2112   0.6525   0.9321
 Ivac, M/SEC                3716.3   2176.7   2317.2
 Isp, M/SEC                  373.3   1153.1   1647.3

 MOLE FRACTIONS

 *C              1.134 -9 9.800-10 3.742-10 1.109-10
 *CH             3.347-10 2.824-10 1.003-10 2.737-11
 CH2             3.798-10 3.198-10 1.212-10 3.632-11
 CH3             3.686-10 3.118-10 1.316-10 4.571-11
 CH2OH           1.141-10 9.497-11 3.771-11 1.200-11
 CH3O            3.625-11 2.979-11 1.094-11 3.162-12
 CH4             6.299-11 5.293-11 2.328-11 8.667-12
 CH3OH           4.960-12 4.082-12 1.639-12 5.359-13
 CH3OOH          4.644-16 3.549-16 9.327-17 1.762-17
 *CO             3.1466-1 3.1414-1 3.0883-1 3.0185-1
 *CO2            1.4385-1 1.4478-1 1.5622-1 1.7057-1
 COOH            8.5670-6 7.8355-6 5.0153-6 2.8460-6
 *C2             9.822-15 7.637-15 1.702-15 2.608-16
 C2H             1.637-13 1.283-13 3.246-14 5.919-15
 C2H2,acetylene  1.128-12 9.071-13 2.935-13 7.406-14
 C2H2,vinylidene 9.598-15 7.418-15 1.863-15 3.398-16
 CH2CO,ketene    1.274-11 1.036-11 3.746-12 1.078-12
 O(CH)2O         2.034-13 1.622-13 5.392-14 1.383-14
 HO(CO)2OH       6.180-14 4.962-14 1.875-14 5.569-15
 C2H3,vinyl      5.406-16 4.066-16 9.318-17 1.531-17
 CH3CO,acetyl    9.681-15 7.382-15 1.924-15 3.696-16
 C2H4            1.201-16 9.069-17 2.306-17 4.379-18
 CH3CHO,ethanal  1.472-16 1.106-16 2.845-17 5.430-18
 CH3COOH         1.003-16 7.560-17 2.062-17 4.208-18
 C2O             1.826-10 1.523-10 5.500-11 1.546-11
 C3O2            3.004-13 2.389-13 7.564-14 1.834-14
 *H              3.6881-2 3.6794-2 3.2946-2 2.8426-2
 HCO             1.2425-5 1.1339-5 6.8622-6 3.6559-6
 HCCO            1.321-11 1.074-11 3.584-12 9.204-13
 HO2             7.3028-5 6.8618-5 4.5825-5 2.6713-5
 *H2             8.2228-2 8.2158-2 8.0367-2 7.8398-2
 HCHO,formaldehy 2.3998-7 2.1506-7 1.2573-7 6.4867-8
 HCOOH           8.3390-7 7.4977-7 4.6670-7 2.5861-7
 H2O             3.1172-1 3.1262-1 3.2640-1 3.4276-1
 H2O2            7.7151-6 7.1198-6 4.5957-6 2.5929-6
 *O              1.6812-2 1.6620-2 1.3537-2 1.0144-2
 *OH             6.9251-2 6.8459-2 6.0317-2 5.0459-2
 *O2             2.4498-2 2.4339-2 2.1317-2 1.7357-2
 O3              6.8164-8 6.1234-8 2.9834-8 1.1524-8

  * THERMODYNAMIC PROPERTIES FITTED TO 20000.K

              THEORETICAL ROCKET PERFORMANCE ASSUMING EQUILIBRIUM

            COMPOSITION DURING EXPANSION FROM FINITE AREA COMBUSTOR

 Pin =   319.1 PSIA
 Ac/At =  2.0000      Pinj/Pinf =  1.051648
 CASE = test___________

             REACTANT                       MOLES         ENERGY      TEMP
                                                         KJ/KG-MOL      K
 FUEL        RP-1                       100.0000000    -24717.700    298.150
 OXIDANT     O2(L)                      100.0000000    -12979.000     90.170

 O/F=    2.43262  %FUEL= 29.132277  R,EQ.RATIO= 1.400000  PHI,EQ.RATIO= 1.400000

                 INJECTOR  COMB END  THROAT     EXIT
 Pinj/P            1.0000   1.1120   1.8192   3.3464
 P, BAR            22.000   19.784   12.093   6.5743
 T, K             3475.95  3451.40  3298.89  3118.69
 RHO, KG/CU M    1.7165 0 1.5559 0 1.0077 0 5.8797-1
 H, KJ/KG         -802.67  -873.90 -1481.95 -2188.11
 U, KJ/KG        -2084.33 -2145.42 -2682.08 -3306.25
 G, KJ/KG        -41949.1 -41793.9 -40593.7 -39163.5
 S, KJ/(KG)(K)    11.8375  11.8560  11.8560  11.8560

 M, (1/n)          22.550   22.569   22.855   23.191
 (dLV/dLP)t      -1.03968 -1.03935 -1.03364 -1.02636
 (dLV/dLT)p        1.7129   1.7120   1.6381   1.5299
 Cp, KJ/(KG)(K)    6.8258   6.8481   6.4971   5.9004
 GAMMAs            1.1348   1.1342   1.1320   1.1310
 SON VEL,M/SEC     1206.0   1200.9   1165.6   1124.6
 MACH NUMBER        0.000    0.314    1.000    1.480

 PERFORMANCE PARAMETERS

 Ae/At                      2.0000   1.0000   1.2000
 CSTAR, M/SEC               1781.1   1781.1   1781.1
 CF                         0.2119   0.6544   0.9346
 Ivac, M/SEC                3746.2   2195.2   2336.3
 Isp, M/SEC                  377.4   1165.6   1664.6

 MOLE FRACTIONS

 *C              1.285 -9 1.107 -9 4.023-10 1.089-10
 *CH             4.404-10 3.706-10 1.277-10 3.289-11
 CH2             5.977-10 5.028-10 1.906-10 5.667-11
 CH3             7.000-10 5.928-10 2.587-10 9.443-11
 CH2OH           1.680-10 1.398-10 5.611-11 1.808-11
 CH3O            5.245-11 4.308-11 1.591-11 4.611-12
 CH4             1.422-10 1.199-10 5.615-11 2.310-11
 CH3OH           8.625-12 7.110-12 2.963-12 1.026-12
 CH3OOH          5.786-16 4.414-16 1.144-16 2.100-17
 *CO             3.4400-1 3.4358-1 3.4002-1 3.3540-1
 *CO2            1.2600-1 1.2683-1 1.3636-1 1.4798-1
 COOH            7.9002-6 7.2163-6 4.5301-6 2.4818-6
 *C2             1.540-14 1.194-14 2.583-15 3.730-16
 C2H             3.111-13 2.435-13 6.200-14 1.130-14
 C2H2,acetylene  2.663-12 2.147-12 7.308-13 1.990-13
 C2H2,vinylidene 2.147-14 1.660-14 4.298-15 8.163-16
 CH2CO,ketene    2.420-11 1.972-11 7.432-12 2.276-12
 O(CH)2O         2.980-13 2.378-13 8.043-14 2.109-14
 HO(CO)2OH       5.742-14 4.608-14 1.728-14 5.048-15
 C2H3,vinyl      1.397-15 1.053-15 2.533-16 4.467-17
 CH3CO,acetyl    2.020-14 1.543-14 4.191-15 8.552-16
 C2H4            3.743-16 2.837-16 7.831-17 1.690-17
 CH3CHO,ethanal  3.612-16 2.722-16 7.471-17 1.577-17
 CH3COOH         1.958-16 1.479-16 4.250-17 9.401-18
 C2O             2.496-10 2.079-10 7.442-11 2.047-11
 C3O2            4.869-13 3.876-13 1.259-13 3.166-14
 *H              3.8170-2 3.8023-2 3.3374-2 2.7770-2
 HCO             1.4416-5 1.3146-5 7.9062-6 4.1508-6
 HCCO            2.093-11 1.702-11 5.733-12 1.485-12
 HO2             4.3740-5 4.0898-5 2.5251-5 1.2881-5
 *H2             1.0228-1 1.0225-1 1.0122-1 1.0049-1
 HCHO,formaldehy 3.2578-7 2.9212-7 1.7360-7 9.1668-8
 HCOOH           9.0109-7 8.1025-7 5.0621-7 2.8150-7
 H2O             3.0883-1 3.0972-1 3.2312-1 3.3859-1
 H2O2            5.4079-6 4.9729-6 3.0348-6 1.5556-6
 *O              1.1354-2 1.1175-2 8.4847-3 5.6394-3
 *OH             5.6092-2 5.5313-2 4.6861-2 3.6643-2
 *O2             1.3200-2 1.3050-2 1.0525-2 7.4595-3
 O3              2.5374-8 2.2595-8 9.5324-9 2.8886-9

  * THERMODYNAMIC PROPERTIES FITTED TO 20000.K

              THEORETICAL ROCKET PERFORMANCE ASSUMING EQUILIBRIUM

            COMPOSITION DURING EXPANSION FROM FINITE AREA COMBUSTOR

 Pin =   319.1 PSIA
 Ac/At =  2.0000      Pinj/Pinf =  1.051903
 CASE = test___________

             REACTANT                       MOLES         ENERGY      TEMP
                                                         KJ/KG-MOL      K
 FUEL        RP-1                       100.0000000    -24717.700    298.150
 OXIDANT     O2(L)                      100.0000000    -12979.000     90.170

 O/F=    2.27044  %FUEL= 30.576886  R,EQ.RATIO= 1.500000  PHI,EQ.RATIO= 1.500000

                 INJECTOR  COMB END  THROAT     EXIT
 Pinj/P            1.0000   1.1126   1.8255   3.3754
 P, BAR            22.000   19.773   12.051   6.5178
 T, K             3423.00  3397.91  3233.53  3034.12
 RHO, KG/CU M    1.6942 0 1.5352 0 9.9460-1 5.8065-1
 H, KJ/KG         -822.36  -894.89 -1513.55 -2230.63
 U, KJ/KG        -2120.93 -2182.90 -2725.23 -3353.11
 G, KJ/KG        -41940.7 -41777.2 -40418.0 -38735.9
 S, KJ/(KG)(K)    12.0124  12.0316  12.0316  12.0316

 M, (1/n)          21.917   21.935   22.188   22.474
 (dLV/dLP)t      -1.03004 -1.02965 -1.02357 -1.01640
 (dLV/dLT)p        1.5449   1.5417   1.4527   1.3352
 Cp, KJ/(KG)(K)    5.8811   5.8816   5.3773   4.6376
 GAMMAs            1.1414   1.1409   1.1409   1.1439
 SON VEL,M/SEC     1217.5   1212.3   1175.8   1133.2
 MACH NUMBER        0.000    0.314    1.000    1.481

 PERFORMANCE PARAMETERS

 Ae/At                      2.0000   1.0000   1.2000
 CSTAR, M/SEC               1788.5   1788.5   1788.5
 CF                         0.2130   0.6574   0.9384
 Ivac, M/SEC                3762.6   2206.3   2347.1
 Isp, M/SEC                  380.9   1175.8   1678.3

 MOLE FRACTIONS

 *C              1.280 -9 1.095 -9 3.639-10 8.334-11
 *CH             5.203-10 4.357-10 1.412-10 3.230-11
 CH2             8.806-10 7.393-10 2.757-10 7.875-11
 CH3             1.305 -9 1.107 -9 5.001-10 1.918-10
 CH2OH           2.366-10 1.967-10 7.921-11 2.543-11
 CH3O            7.183-11 5.893-11 2.163-11 6.148-12
 CH4             3.276-10 2.774-10 1.407-10 6.580-11
 CH3OH           1.485-11 1.227-11 5.334-12 1.970-12
 CH3OOH          6.606-16 5.025-16 1.258-16 2.154-17
 *CO             3.7102-1 3.7071-1 3.6882-1 3.6634-1
 *CO2            1.0845-1 1.0915-1 1.1660-1 1.2534-1
 COOH            6.8688-6 6.2592-6 3.7941-6 1.9512-6
 *C2             2.118-14 1.633-14 3.306-15 4.179-16
 C2H             5.455-13 4.262-13 1.071-13 1.878-14
 C2H2,acetylene  6.211-12 5.020-12 1.806-12 5.342-13
 C2H2,vinylidene 4.573-14 3.537-14 9.367-15 1.821-15
 CH2CO,ketene    4.534-11 3.703-11 1.460-11 4.787-12
 O(CH)2O         4.182-13 3.336-13 1.141-13 3.025-14
 HO(CO)2OH       5.025-14 4.027-14 1.480-14 4.171-15
 C2H3,vinyl      3.508-15 2.647-15 6.690-16 1.263-16
 CH3CO,acetyl    4.100-14 3.136-14 8.882-15 1.924-15
 C2H4            1.188-15 9.050-16 2.761-16 6.974-17
 CH3CHO,ethanal  8.883-16 6.720-16 1.993-16 4.752-17
 CH3COOH         3.797-16 2.876-16 8.789-17 2.141-17
 C2O             3.151-10 2.618-10 9.097-11 2.353-11
 C3O2            7.584-13 6.040-13 2.005-13 5.178-14
 *H              3.7488-2 3.7252-2 3.1563-2 2.4592-2
 HCO             1.5916-5 1.4491-5 8.5557-6 4.3244-6
 HCCO            3.127-11 2.541-11 8.539-12 2.179-12
 HO2             2.3042-5 2.1378-5 1.1704-5 4.8405-6
 *H2             1.2629-1 1.2634-1 1.2668-1 1.2809-1
 HCHO,formaldehy 4.3266-7 3.8818-7 2.3413-7 1.2609-7
 HCOOH           9.4469-7 8.4925-7 5.3009-7 2.9356-7
 H2O             3.0130-1 3.0213-1 3.1429-1 3.2741-1
 H2O2            3.4279-6 3.1342-6 1.7528-6 7.7096-7
 *O              6.8312-3 6.6766-3 4.5475-3 2.4976-3
 *OH             4.2280-2 4.1527-2 3.3075-2 2.3190-2
 *O2             6.2916-3 6.1721-3 4.3999-3 2.5192-3
 O3              7.561 -9 6.640 -9 2.254 -9 4.689-10

  * THERMODYNAMIC PROPERTIES FITTED TO 20000.K

              THEORETICAL ROCKET PERFORMANCE ASSUMING EQUILIBRIUM

            COMPOSITION DURING EXPANSION FROM FINITE AREA COMBUSTOR

 Pin =   319.1 PSIA
 Ac/At =  2.0000      Pinj/Pinf =  1.052267
 CASE = test___________

             REACTANT                       MOLES         ENERGY      TEMP
                                                         KJ/KG-MOL      K
 FUEL        RP-1                       100.0000000    -24717.700    298.150
 OXIDANT     O2(L)                      100.0000000    -12979.000     90.170

 O/F=    2.12854  %FUEL= 31.963777  R,EQ.RATIO= 1.600000  PHI,EQ.RATIO= 1.600000

                 INJECTOR  COMB END  THROAT     EXIT
 Pinj/P            1.0000   1.1135   1.8346   3.4165
 P, BAR            22.000   19.758   11.992   6.4393
 T, K             3348.28  3322.44  3142.25  2918.28
 RHO, KG/CU M    1.6829 0 1.5243 0 9.8806-1 5.7731-1
 H, KJ/KG         -841.26  -914.79 -1541.28 -2265.21
 U, KJ/KG        -2148.56 -2211.05 -2754.97 -3380.61
 G, KJ/KG        -41595.7 -41420.9 -39850.5 -37843.9
 S, KJ/(KG)(K)    12.1718  12.1917  12.1917  12.1917

 M, (1/n)          21.295   21.311   21.526   21.754
 (dLV/dLP)t      -1.02125 -1.02085 -1.01526 -1.00937
 (dLV/dLT)p        1.3905   1.3859   1.2979   1.1953
 Cp, KJ/(KG)(K)    4.9562   4.9405   4.3849   3.6766
 GAMMAs            1.1508   1.1505   1.1536   1.1617
 SON VEL,M/SEC     1226.6   1221.2   1183.2   1138.3
 MACH NUMBER        0.000    0.314    1.000    1.483

 PERFORMANCE PARAMETERS

 Ae/At                      2.0000   1.0000   1.2000
 CSTAR, M/SEC               1788.3   1788.3   1788.3
 CF                         0.2144   0.6616   0.9437
 Ivac, M/SEC                3763.6   2209.0   2348.5
 Isp, M/SEC                  383.5   1183.2   1687.6

 MOLE FRACTIONS

 *C              1.096 -9 9.278-10 2.678-10 4.725-11
 *CH             5.422-10 4.505-10 1.317-10 2.476-11
 CH2             1.201 -9 1.004 -9 3.596-10 9.404-11
 CH3             2.381 -9 2.022 -9 9.417-10 3.746-10
 CH2OH           3.166-10 2.629-10 1.047-10 3.261-11
 CH3O            9.228-11 7.553-11 2.709-11 7.303-12
 CH4             7.727-10 6.579-10 3.663-10 1.983-10
 CH3OH           2.528-11 2.093-11 9.506-12 3.745-12
 CH3OOH          6.818-16 5.159-16 1.212-16 1.840-17
 *CO             3.9514-1 3.9493-1 3.9430-1 3.9311-1
 *CO2            9.1860-2 9.2431-2 9.8001-2 1.0440-1
 COOH            5.5936-6 5.0778-6 2.9184-6 1.3668-6
 *C2             2.509-14 1.916-14 3.448-15 3.472-16
 C2H             8.734-13 6.796-13 1.636-13 2.607-14
 C2H2,acetylene  1.431-11 1.160-11 4.407-12 1.405-12
 C2H2,vinylidene 9.221-14 7.126-14 1.899-14 3.650-15
 CH2CO,ketene    8.384-11 6.863-11 2.831-11 9.904-12
 O(CH)2O         5.606-13 4.469-13 1.530-13 4.022-14
 HO(CO)2OH       4.133-14 3.303-14 1.175-14 3.138-15
 C2H3,vinyl      8.527-15 6.445-15 1.697-15 3.363-16
 CH3CO,acetyl    8.076-14 6.186-14 1.818-14 4.128-15
 C2H4            3.857-15 2.957-15 1.010-15 3.030-16
 CH3CHO,ethanal  2.197-15 1.670-15 5.395-16 1.466-16
 CH3COOH         7.336-16 5.577-16 1.824-16 4.940-17
 C2O             3.641-10 3.011-10 9.885-11 2.285-11
 C3O2            1.137-12 9.060-13 3.047-13 7.963-14
 *H              3.4586-2 3.4239-2 2.7441-2 1.9304-2
 HCO             1.6616-5 1.5088-5 8.6016-6 4.0625-6
 HCCO            4.384-11 3.554-11 1.169-11 2.836-12
 HO2             1.0455-5 9.5881-6 4.4353-6 1.3719-6
 *H2             1.5433-1 1.5450-1 1.5670-1 1.6068-1
 HCHO,formaldehy 5.6098-7 5.0345-7 3.0683-7 1.6697-7
 HCOOH           9.5874-7 8.6128-7 5.3400-7 2.9188-7
 H2O             2.8856-1 2.8927-1 2.9915-1 3.0847-1
 H2O2            1.9319-6 1.7512-6 8.6534-7 3.0736-7
 *O              3.5917-3 3.4740-3 2.0292-3 8.5283-4
 *OH             2.9292-2 2.8597-2 2.0847-2 1.2521-2
 *O2             2.6026-3 2.5243-3 1.5187-3 6.5086-4
 O3              1.742 -9 1.499 -9 3.769-10 4.689-11

  * THERMODYNAMIC PROPERTIES FITTED TO 20000.K

              THEORETICAL ROCKET PERFORMANCE ASSUMING EQUILIBRIUM

            COMPOSITION DURING EXPANSION FROM FINITE AREA COMBUSTOR

 Pin =   319.1 PSIA
 Ac/At =  2.0000      Pinj/Pinf =  1.052724
 CASE = test___________

             REACTANT                       MOLES         ENERGY      TEMP
                                                         KJ/KG-MOL      K
 FUEL        RP-1                       100.0000000    -24717.700    298.150
 OXIDANT     O2(L)                      100.0000000    -12979.000     90.170

 O/F=    2.00333  %FUEL= 33.296340  R,EQ.RATIO= 1.700000  PHI,EQ.RATIO= 1.700000

                 INJECTOR  COMB END  THROAT     EXIT
 Pinj/P            1.0000   1.1145   1.8457   3.4658
 P, BAR            22.000   19.740   11.919   6.3477
 T, K             3252.47  3225.72  3027.61  2778.48
 RHO, KG/CU M    1.6829 0 1.5235 0 9.8835-1 5.7819-1
 H, KJ/KG         -859.42  -933.60 -1564.46 -2290.07
 U, KJ/KG        -2166.70 -2229.28 -2770.45 -3387.94
 G, KJ/KG        -40916.1 -40727.4 -38914.3 -36566.6
 S, KJ/(KG)(K)    12.3158  12.3364  12.3364  12.3364

 M, (1/n)          20.686   20.700   20.873   21.042
 (dLV/dLP)t      -1.01437 -1.01401 -1.00944 -1.00512
 (dLV/dLT)p        1.2680   1.2633   1.1879   1.1096
 Cp, KJ/(KG)(K)    4.1855   4.1619   3.6447   3.0584
 GAMMAs            1.1629   1.1628   1.1693   1.1820
 SON VEL,M/SEC     1233.0   1227.5   1187.5   1139.1
 MACH NUMBER        0.000    0.314    1.000    1.485

 PERFORMANCE PARAMETERS

 Ae/At                      2.0000   1.0000   1.2000
 CSTAR, M/SEC               1780.6   1780.6   1780.6
 CF                         0.2163   0.6669   0.9500
 Ivac, M/SEC                3749.0   2203.1   2340.6
 Isp, M/SEC                  385.2   1187.5   1691.5

 MOLE FRACTIONS

 *C              7.934-10 6.620-10 1.571-10 1.963-11
 *CH             4.904-10 4.028-10 1.014-10 1.457-11
 CH2             1.495 -9 1.244 -9 4.146-10 9.449-11
 CH3             4.209 -9 3.576 -9 1.698 -9 6.861-10
 CH2OH           3.989-10 3.303-10 1.280-10 3.761-11
 CH3O            1.101-10 8.980-11 3.081-11 7.629-12
 CH4             1.854 -9 1.589 -9 9.767-10 6.152-10
 CH3OH           4.225-11 3.505-11 1.658-11 6.920-12
 CH3OOH          6.285-16 4.718-16 1.010-16 1.300-17
 *CO             4.1588-1 4.1574-1 4.1570-1 4.1470-1
 *CO2            7.6921-2 7.7381-2 8.1569-2 8.6603-2
 COOH            4.2554-6 3.8426-6 2.0600-6 8.5945-7
 *C2             2.513-14 1.893-14 2.862-15 2.097-16
 C2H             1.259-12 9.733-13 2.166-13 2.952-14
 C2H2,acetylene  3.230-11 2.625-11 1.044-11 3.518-12
 C2H2,vinylidene 1.738-13 1.340-13 3.508-14 6.378-15
 CH2CO,ketene    1.524-10 1.250-10 5.370-11 1.982-11
 O(CH)2O         7.150-13 5.691-13 1.926-13 4.934-14
 HO(CO)2OH       3.201-14 2.549-14 8.706-15 2.190-15
 C2H3,vinyl      1.983-14 1.499-14 4.047-15 8.147-16
 CH3CO,acetyl    1.532-13 1.175-13 3.543-14 8.264-15
 C2H4            1.270-14 9.808-15 3.757-15 1.335-15
 CH3CHO,ethanal  5.430-15 4.148-15 1.461-15 4.509-16
 CH3COOH         1.408-15 1.074-15 3.768-16 1.138-16
 OHCH2COOH       1.055-16 7.760-17 2.028-17 3.930-18
 C2O             3.823-10 3.140-10 9.446-11 1.861-11
 C3O2            1.642-12 1.307-12 4.409-13 1.147-13
 *H              2.9730-2 2.9270-2 2.1720-2 1.3347-2
 HCO             1.6313-5 1.4752-5 7.9782-6 3.4261-6
 HCCO            5.722-11 4.620-11 1.456-11 3.233-12
 HO2             4.0461-6 3.6538-6 1.3677-6 2.9795-7
 *H2             1.8569-1 1.8600-1 1.9004-1 1.9611-1
 HCHO,formaldehy 7.0710-7 6.3452-7 3.8810-7 2.1103-7
 HCOOH           9.4079-7 8.4416-7 5.1728-7 2.7757-7
 H2O             2.7067-1 2.7120-1 2.7810-1 2.8309-1
 H2O2            9.5984-7 8.6007-7 3.6340-7 9.9644-8
 *O              1.6341-3 1.5585-3 7.4864-4 2.2666-4
 *OH             1.8523-2 1.7936-2 1.1670-2 5.7917-3
 *O2             9.2791-4 8.8653-4 4.3248-4 1.3133-4
 O3              3.066-10 2.568-10 4.445-11 2.994-12

  * THERMODYNAMIC PROPERTIES FITTED TO 20000.K

              THEORETICAL ROCKET PERFORMANCE ASSUMING EQUILIBRIUM

            COMPOSITION DURING EXPANSION FROM FINITE AREA COMBUSTOR

 Pin =   319.1 PSIA
 Ac/At =  2.0000      Pinj/Pinf =  1.053237
 CASE = test___________

             REACTANT                       MOLES         ENERGY      TEMP
                                                         KJ/KG-MOL      K
 FUEL        RP-1                       100.0000000    -24717.700    298.150
 OXIDANT     O2(L)                      100.0000000    -12979.000     90.170

 O/F=    1.89204  %FUEL= 34.577706  R,EQ.RATIO= 1.800000  PHI,EQ.RATIO= 1.800000

                 INJECTOR  COMB END  THROAT     EXIT
 Pinj/P            1.0000   1.1157   1.8581   3.5180
 P, BAR            22.000   19.719   11.840   6.2535
 T, K             3138.86  3111.15  2895.66  2625.23
 RHO, KG/CU M    1.6939 0 1.5327 0 9.9533-1 5.8321-1
 H, KJ/KG         -876.89  -951.30 -1582.68 -2304.38
 U, KJ/KG        -2175.64 -2237.88 -2772.25 -3376.65
 G, KJ/KG        -39938.9 -39735.3 -37680.3 -35030.8
 S, KJ/(KG)(K)    12.4447  12.4661  12.4661  12.4661

 M, (1/n)          20.095   20.106   20.239   20.356
 (dLV/dLP)t      -1.00945 -1.00916 -1.00568 -1.00270
 (dLV/dLT)p        1.1797   1.1755   1.1157   1.0597
 Cp, KJ/(KG)(K)    3.6054   3.5798   3.1381   2.6819
 GAMMAs            1.1768   1.1771   1.1866   1.2024
 SON VEL,M/SEC     1236.3   1230.6   1188.1   1135.5
 MACH NUMBER        0.000    0.313    1.000    1.488

 PERFORMANCE PARAMETERS

 Ae/At                      2.0000   1.0000   1.2000
 CSTAR, M/SEC               1766.3   1766.3   1766.3
 CF                         0.2184   0.6726   0.9566
 Ivac, M/SEC                3720.8   2189.3   2324.3
 Isp, M/SEC                  385.8   1188.1   1689.7

 MOLE FRACTIONS

 *C              4.827-10 3.952-10 7.351-11 6.113-12
 *CH             3.819-10 3.090-10 6.426-11 6.692-12
 CH2             1.685 -9 1.390 -9 4.192-10 8.020-11
 CH3             7.1369-9 6.0636-9 2.8978-9 1.1678-9
 CH2OH           4.703-10 3.878-10 1.438-10 3.911-11
 CH3O            1.214-10 9.842-11 3.171-11 7.055-12
 CH4             4.4817-9 3.8696-9 2.6305-9 1.9306-9
 CH3OH           6.886-11 5.725-11 2.808-11 1.236-11
 CH3OOH          5.151-16 3.828-16 7.278-17 7.737-18
 *CO             4.3307-1 4.3297-1 4.3289-1 4.3128-1
 *CO2            6.4059-2 6.4439-2 6.7824-2 7.2345-2
 COOH            3.0318-6 2.7198-6 1.3445-6 4.9383-7
 *C2             2.108-14 1.560-14 1.881-15 9.375-17
 C2H             1.619-12 1.239-12 2.461-13 2.741-14
 C2H2,acetylene  7.079-11 5.763-11 2.371-11 8.296-12
 C2H2,vinylidene 3.030-13 2.326-13 5.826-14 9.676-15
 CH2CO,ketene    2.708-10 2.226-10 9.888-11 3.819-11
 O(CH)2O         8.663-13 6.878-13 2.280-13 5.629-14
 HO(CO)2OH       2.353-14 1.866-14 6.110-15 1.454-15
 C2H3,vinyl      4.355-14 3.292-14 8.927-15 1.777-15
 CH3CO,acetyl    2.778-13 2.130-13 6.515-14 1.538-14
 C2H4            4.189-14 3.259-14 1.395-14 5.828-15
 CH3CHO,ethanal  1.329-14 1.021-14 3.908-15 1.367-15
 CH3COOH         2.671-15 2.048-15 7.713-16 2.607-16
 OHCH2COOH       1.324-16 9.727-17 2.563-17 5.055-18
 C2O             3.636-10 2.959-10 7.942-11 1.289-11
 C3O2            2.282-12 1.815-12 6.084-13 1.558-13
 *H              2.3722-2 2.3188-2 1.5635-2 8.1950-3
 HCO             1.5031-5 1.3517-5 6.8297-6 2.6165-6
 HCCO            6.921-11 5.556-11 1.641-11 3.251-12
 HO2             1.3399-6 1.1873-6 3.4823-7 5.1486-8
 *H2             2.1895-1 2.1939-1 2.2470-1 2.3179-1
 HCHO,formaldehy 8.6374-7 7.7464-7 4.7244-7 2.5475-7
 HCOOH           8.9384-7 8.0085-7 4.8391-7 2.5500-7
 H2O             2.4855-1 2.4887-1 2.5276-1 2.5398-1
 H2O2            4.2113-7 3.7204-7 1.3123-7 2.7052-8
 *O              6.4406-4 6.0360-4 2.3072-4 4.8349-5
 *OH             1.0692-2 1.0248-2 5.8357-3 2.3379-3
 *O2             2.8669-4 2.6893-4 1.0333-4 2.1507-5
 O3              4.157-11 3.369-11 3.811-12 1.310-13

  * THERMODYNAMIC PROPERTIES FITTED TO 20000.K

              THEORETICAL ROCKET PERFORMANCE ASSUMING EQUILIBRIUM

            COMPOSITION DURING EXPANSION FROM FINITE AREA COMBUSTOR

 Pin =   319.1 PSIA
 Ac/At =  2.0000      Pinj/Pinf =  1.053774
 CASE = test___________

             REACTANT                       MOLES         ENERGY      TEMP
                                                         KJ/KG-MOL      K
 FUEL        RP-1                       100.0000000    -24717.700    298.150
 OXIDANT     O2(L)                      100.0000000    -12979.000     90.170

 O/F=    1.79246  %FUEL= 35.810771  R,EQ.RATIO= 1.900000  PHI,EQ.RATIO= 1.900000

                 INJECTOR  COMB END  THROAT     EXIT
 Pinj/P            1.0000   1.1169   1.8707   3.5687
 P, BAR            22.000   19.697   11.761   6.1647
 T, K             3011.99  2983.43  2753.05  2467.45
 RHO, KG/CU M    1.7153 0 1.5512 0 1.0087 0 5.9220-1
 H, KJ/KG         -893.69  -967.92 -1595.87 -2308.31
 U, KJ/KG        -2176.27 -2237.76 -2761.84 -3349.30
 G, KJ/KG        -38720.7 -38502.7 -36232.2 -33351.6
 S, KJ/(KG)(K)    12.5588  12.5811  12.5811  12.5811

 M, (1/n)          19.526   19.535   19.632   19.708
 (dLV/dLP)t      -1.00608 -1.00584 -1.00330 -1.00135
 (dLV/dLT)p        1.1183   1.1147   1.0694   1.0312
 Cp, KJ/(KG)(K)    3.1861   3.1614   2.7989   2.4560
 GAMMAs            1.1920   1.1925   1.2045   1.2215
 SON VEL,M/SEC     1236.5   1230.6   1185.1   1127.6
 MACH NUMBER        0.000    0.313    1.000    1.492

 PERFORMANCE PARAMETERS

 Ae/At                      2.0000   1.0000   1.2000
 CSTAR, M/SEC               1746.6   1746.6   1746.6
 CF                         0.2206   0.6785   0.9630
 Ivac, M/SEC                3681.1   2169.0   2300.9
 Isp, M/SEC                  385.3   1185.1   1682.0

 MOLE FRACTIONS

 *C              2.472-10 1.977-10 2.772-11 1.474-12
 *CH             2.562-10 2.034-10 3.381-11 2.466-12
 CH2             1.714 -9 1.399 -9 3.733-10 5.859-11
 CH3             1.1564-8 9.8169-9 4.6744-9 1.8634-9
 CH2OH           5.184-10 4.253-10 1.492-10 3.722-11
 CH3O            1.236-10 9.949-11 2.971-11 5.881-12
 CH4             1.0867-8 9.4578-9 7.1307-9 6.1395-9
 CH3OH           1.092-10 9.098-11 4.621-11 2.150-11
 CH3OOH          3.764-16 2.763-16 4.593-17 3.984-18
 *CO             4.4695-1 4.4685-1 4.4633-1 4.4380-1
 *CO2            5.3330-2 5.3663-2 5.6682-2 6.1164-2
 COOH            2.0330-6 1.8100-6 8.1907-7 2.6348-7
 *C2             1.483-14 1.073-14 9.893-16 3.210-17
 C2H             1.853-12 1.401-12 2.415-13 2.138-14
 C2H2,acetylene  1.500-10 1.223-10 5.153-11 1.859-11
 C2H2,vinylidene 4.863-13 3.711-13 8.713-14 1.296-14
 CH2CO,ketene    4.699-10 3.868-10 1.771-10 7.149-11
 O(CH)2O         9.999-13 7.914-13 2.554-13 6.071-14
 HO(CO)2OH       1.658-14 1.309-14 4.124-15 9.389-16
 C2H3,vinyl      8.990-14 6.783-14 1.821-14 3.538-15
 CH3CO,acetyl    4.809-13 3.685-13 1.134-13 2.700-14
 C2H4            1.374-13 1.077-13 5.143-14 2.532-14
 CH3CHO,ethanal  3.211-14 2.480-14 1.033-14 4.111-15
 CH3COOH         5.012-15 3.862-15 1.569-15 6.006-16
 OHCH2COOH       1.593-16 1.170-16 3.115-17 6.319-18
 C2H5            1.448-16 1.049-16 3.149-17 8.219-18
 C2O             3.140-10 2.526-10 5.925-11 7.767-12
 C3O2            3.066-12 2.433-12 8.065-13 2.028-13
 *H              1.7575-2 1.7029-2 1.0278-2 4.5252-3
 HCO             1.3016-5 1.1627-5 5.4249-6 1.8340-6
 HCCO            7.763-11 6.188-11 1.686-11 2.936-12
 HO2             3.8274-7 3.3177-7 7.4426-8 7.2977-9
 *H2             2.5247-1 2.5299-1 2.5880-1 2.6597-1
 HCHO,formaldehy 1.0226-6 9.1621-7 5.5497-7 2.9621-7
 HCOOH           8.2519-7 7.3818-7 4.4014-7 2.2877-7
 H2O             2.2370-1 2.2383-1 2.2519-1 2.2369-1
 H2O2            1.6419-7 1.4269-7 4.1304-8 6.3042-9
 *O              2.2117-4 2.0307-4 6.0177-5 8.5002-6
 *OH             5.6526-3 5.3534-3 2.6281-3 8.3735-4
 *O2             7.7439-5 7.1122-5 2.1055-5 2.9395-6
 O3              4.418-12 3.448-12 2.451-13 4.145-15

  * THERMODYNAMIC PROPERTIES FITTED TO 20000.K

              THEORETICAL ROCKET PERFORMANCE ASSUMING EQUILIBRIUM

            COMPOSITION DURING EXPANSION FROM FINITE AREA COMBUSTOR

 Pin =   319.1 PSIA
 Ac/At =  2.0000      Pinj/Pinf =  1.054311
 CASE = test___________

             REACTANT                       MOLES         ENERGY      TEMP
                                                         KJ/KG-MOL      K
 FUEL        RP-1                       100.0000000    -24717.700    298.150
 OXIDANT     O2(L)                      100.0000000    -12979.000     90.170

 O/F=    1.70283  %FUEL= 36.998214  R,EQ.RATIO= 2.000000  PHI,EQ.RATIO= 2.000000

                 INJECTOR  COMB END  THROAT     EXIT
 Pinj/P            1.0000   1.1181   1.8829   3.6159
 P, BAR            22.000   19.676   11.684   6.0843
 T, K             2876.22  2846.97  2605.29  2311.28
 RHO, KG/CU M    1.7464 0 1.5785 0 1.0279 0 6.0480-1
 H, KJ/KG         -909.88  -983.50 -1604.31 -2302.94
 U, KJ/KG        -2169.64 -2230.02 -2740.99 -3308.95
 G, KJ/KG        -37318.6 -37088.0 -34643.8 -31613.9
 S, KJ/(KG)(K)    12.6585  12.6817  12.6817  12.6817

 M, (1/n)          18.983   18.990   19.057   19.102
 (dLV/dLP)t      -1.00379 -1.00361 -1.00183 -1.00064
 (dLV/dLT)p        1.0760   1.0731   1.0401   1.0155
 Cp, KJ/(KG)(K)    2.8850   2.8625   2.5734   2.3249
 GAMMAs            1.2077   1.2085   1.2219   1.2383
 SON VEL,M/SEC     1233.4   1227.4   1178.5   1116.1
 MACH NUMBER        0.000    0.313    1.000    1.496

 PERFORMANCE PARAMETERS

 Ae/At                      2.0000   1.0000   1.2000
 CSTAR, M/SEC               1722.5   1722.5   1722.5
 CF                         0.2228   0.6842   0.9690
 Ivac, M/SEC                3632.2   2143.0   2271.9
 Isp, M/SEC                  383.7   1178.5   1669.2

 MOLE FRACTIONS

 *C              1.070-10 8.327-11 8.531-12 2.830-13
 *CH             1.486-10 1.155-10 1.494-11 7.491-13
 CH2             1.580 -9 1.274 -9 2.955-10 3.764-11
 CH3             1.7952-8 1.5219-8 7.1844-9 2.8304-9
 CH2OH           5.363-10 4.374-10 1.443-10 3.294-11
 CH3O            1.167-10 9.321-11 2.561-11 4.501-12
 CH4             2.6524-8 2.3289-8 1.9609-8 2.0010-8
 CH3OH           1.692-10 1.413-10 7.450-11 3.689-11
 CH3OOH          2.467-16 1.787-16 2.571-17 1.815-18
 *CO             4.5800-1 4.5787-1 4.5675-1 4.5333-1
 *CO2            4.4514-2 4.4822-2 4.7725-2 5.2356-2
 COOH            1.2884-6 1.1375-6 4.6883-7 1.3187-7
 *C2             8.786-15 6.192-15 4.226-16 8.715-18
 C2H             1.897-12 1.414-12 2.073-13 1.440-14
 C2H2,acetylene  3.084-10 2.517-10 1.082-10 4.028-11
 C2H2,vinylidene 7.219-13 5.468-13 1.187-13 1.571-14
 CH2CO,ketene    7.998-10 6.595-10 3.111-10 1.319-10
 O(CH)2O         1.106-12 8.723-13 2.737-13 6.288-14
 HO(CO)2OH       1.128-14 8.871-15 2.705-15 5.958-16
 C2H3,vinyl      1.752-13 1.319-13 3.476-14 6.583-15
 CH3CO,acetyl    7.987-13 6.116-13 1.890-13 4.557-14
 C2H4            4.500-13 3.560-13 1.903-13 1.114-13
 CH3CHO,ethanal  7.698-14 5.984-14 2.724-14 1.248-14
 CH3COOH         9.361-15 7.255-15 3.210-15 1.412-15
 OHCH2COOH       1.854-16 1.362-16 3.689-17 7.808-18
 C2H5            4.461-16 3.249-16 1.050-16 3.078-17
 C2H6            1.152-16 8.650-17 4.776-17 3.344-17
 C2O             2.475-10 1.965-10 3.965-11 4.157-12
 C3H3,2-propynl  1.172-16 8.209-17 1.868-17 3.269-18
 C3O2            4.005-12 3.173-12 1.038-12 2.573-13
 *H              1.2110-2 1.1614-2 6.2008-3 2.2735-3
 HCO             1.0626-5 9.4178-6 4.0242-6 1.1944-6
 HCCO            8.115-11 6.414-11 1.596-11 2.430-12
 HO2             9.471 -8 8.008 -8 1.347 -8 8.629-10
 *H2             2.8491-1 2.8545-1 2.9111-1 2.9788-1
 HCHO,formaldehy 1.1768-6 1.0533-6 6.3295-7 3.3497-7
 HCOOH           7.4333-7 6.6398-7 3.9170-7 2.0203-7
 H2O             1.9762-1 1.9759-1 1.9712-1 1.9389-1
 H2O2            5.7115-8 4.8732-8 1.1420-8 1.2793-9
 *O              6.6382-5 5.9537-5 1.3381-5 1.2522-6
 *OH             2.7434-3 2.5629-3 1.0714-3 2.6895-4
 *O2             1.8356-5 1.6462-5 3.6838-6 3.3986-7
 O3              3.712-13 2.777-13 1.201-14 9.747-17

  * THERMODYNAMIC PROPERTIES FITTED TO 20000.K

              THEORETICAL ROCKET PERFORMANCE ASSUMING EQUILIBRIUM

            COMPOSITION DURING EXPANSION FROM FINITE AREA COMBUSTOR

 Pin =   319.1 PSIA
 Ac/At =  2.0000      Pinj/Pinf =  1.054823
 CASE = test___________

             REACTANT                       MOLES         ENERGY      TEMP
                                                         KJ/KG-MOL      K
 FUEL        RP-1                       100.0000000    -24717.700    298.150
 OXIDANT     O2(L)                      100.0000000    -12979.000     90.170

 O/F=    1.62175  %FUEL= 38.142523  R,EQ.RATIO= 2.100000  PHI,EQ.RATIO= 2.100000

                 INJECTOR  COMB END  THROAT     EXIT
 Pinj/P            1.0000   1.1193   1.8942   3.6576
 P, BAR            22.000   19.655   11.614   6.0149
 T, K             2735.15  2705.46  2456.66  2160.63
 RHO, KG/CU M    1.7867 0 1.6142 0 1.0529 0 6.2084-1
 H, KJ/KG         -925.47  -998.10 -1608.30 -2289.37
 U, KJ/KG        -2156.79 -2215.74 -2711.38 -3258.20
 G, KJ/KG        -35783.1 -35542.3 -32975.7 -29877.0
 S, KJ/(KG)(K)    12.7443  12.7683  12.7683  12.7683

 M, (1/n)          18.469   18.474   18.517   18.542
 (dLV/dLP)t      -1.00227 -1.00214 -1.00097 -1.00028
 (dLV/dLT)p        1.0471   1.0449   1.0221   1.0072
 Cp, KJ/(KG)(K)    2.6698   2.6502   2.4272   2.2532
 GAMMAs            1.2234   1.2244   1.2381   1.2525
 SON VEL,M/SEC     1227.4   1221.0   1168.6   1101.6
 MACH NUMBER        0.000    0.312    1.000    1.499

 PERFORMANCE PARAMETERS

 Ae/At                      2.0000   1.0000   1.2000
 CSTAR, M/SEC               1695.0   1695.0   1695.0
 CF                         0.2249   0.6894   0.9744
 Ivac, M/SEC                3575.9   2112.5   2238.2
 Isp, M/SEC                  381.1   1168.6   1651.6

 MOLE FRACTIONS

 *C              3.924-11 2.963-11 2.167-12 4.437-14
 *CH             7.485-11 5.676-11 5.616-12 1.921-13
 CH2             1.326 -9 1.054 -9 2.106-10 2.170-11
 CH3             2.6900-8 2.2770-8 1.0648-8 4.1592-9
 CH2OH           5.236-10 4.242-10 1.312-10 2.748-11
 CH3O            1.029-10 8.148-11 2.053-11 3.215-12
 CH4             6.5822-8 5.8376-8 5.5410-8 6.7741-8
 CH3OH           2.580-10 2.160-10 1.189-10 6.317-11
 CH3OOH          1.460-16 1.042-16 1.292-17 7.450-19
 *CO             4.6676-1 4.6660-1 4.6489-1 4.6077-1
 *CO2            3.7272-2 3.7568-2 4.0466-2 4.5271-2
 COOH            7.7289-7 6.7622-7 2.5305-7 6.2271-8
 *C2             4.415-15 3.020-15 1.491-16 1.935-18
 C2H             1.752-12 1.285-12 1.583-13 8.610-15
 C2H2,acetylene  6.219-10 5.080-10 2.232-10 8.617-11
 C2H2,vinylidene 1.001-12 7.513-13 1.499-13 1.765-14
 CH2CO,ketene    1.347 -9 1.113 -9 5.428-10 2.432-10
 O(CH)2O         1.180-12 9.276-13 2.836-13 6.341-14
 HO(CO)2OH       7.446-15 5.836-15 1.734-15 3.734-16
 C2H3,vinyl      3.261-13 2.447-13 6.324-14 1.173-14
 CH3CO,acetyl    1.286-12 9.842-13 3.064-13 7.542-14
 C2H4            1.492-12 1.191-12 7.194-13 5.065-13
 CH3CHO,ethanal  1.852-13 1.451-13 7.285-14 3.887-14
 CH3COOH         1.758-14 1.372-14 6.688-15 3.431-15
 OHCH2COOH       2.107-16 1.549-16 4.311-17 9.659-18
 C2H5            1.354-15 9.915-16 3.474-16 1.157-16
 C2H6            5.663-16 4.322-16 2.904-16 2.734-16
 C2O             1.791-10 1.400-10 2.408-11 2.015-12
 C3H3,2-propynl  3.441-16 2.415-16 5.691-17 1.059-17
 C3O2            5.131-12 4.056-12 1.312-12 3.227-13
 *H              7.7705-3 7.3664-3 3.4494-3 1.0492-3
 HCO             8.2015-6 7.2060-6 2.8046-6 7.2992-7
 HCCO            7.960-11 6.231-11 1.408-11 1.877-12
 HO2             2.026 -8 1.667 -8 2.067 -9 8.585-11
 *H2             3.1544-1 3.1596-1 3.2110-1 3.2733-1
 HCHO,formaldehy 1.3228-6 1.1825-6 7.0575-7 3.7162-7
 HCOOH           6.5561-7 5.8491-7 3.4269-7 1.7650-7
 H2O             1.7150-1 1.7136-1 1.6970-1 1.6550-1
 H2O2            1.771 -8 1.481 -8 2.780 -9 2.277-10
 *O              1.7382-5 1.5186-5 2.5429-6 1.5616-7
 *OH             1.2215-3 1.1239-3 3.9616-4 7.7946-5
 *O2             3.8049-6 3.3232-6 5.5310-7 3.3417-8
 O3              2.459-14 1.754-14 4.491-16 1.726-18

  * THERMODYNAMIC PROPERTIES FITTED TO 20000.K

              THEORETICAL ROCKET PERFORMANCE ASSUMING EQUILIBRIUM

            COMPOSITION DURING EXPANSION FROM FINITE AREA COMBUSTOR

 Pin =   319.1 PSIA
 Ac/At =  2.0000      Pinj/Pinf =  1.055294
 CASE = test___________

             REACTANT                       MOLES         ENERGY      TEMP
                                                         KJ/KG-MOL      K
 FUEL        RP-1                       100.0000000    -24717.700    298.150
 OXIDANT     O2(L)                      100.0000000    -12979.000     90.170

 O/F=    1.54803  %FUEL= 39.246004  R,EQ.RATIO= 2.200000  PHI,EQ.RATIO= 2.200000

                 INJECTOR  COMB END  THROAT     EXIT
 Pinj/P            1.0000   1.1204   1.9042   3.6936
 P, BAR            22.000   19.636   11.553   5.9563
 T, K             2591.77  2561.91  2310.32  2017.44
 RHO, KG/CU M    1.8361 0 1.6582 0 1.0834 0 6.4012-1
 H, KJ/KG         -940.51 -1011.78 -1608.32 -2269.04
 U, KJ/KG        -2138.70 -2195.96 -2674.66 -3199.53
 G, KJ/KG        -34157.5 -33909.9 -31275.7 -28175.5
 S, KJ/(KG)(K)    12.8164  12.8412  12.8412  12.8412

 M, (1/n)          17.985   17.988   18.014   18.027
 (dLV/dLP)t      -1.00129 -1.00121 -1.00048 -1.00012
 (dLV/dLT)p        1.0280   1.0264   1.0115   1.0032
 Cp, KJ/(KG)(K)    2.5191   2.5027   2.3367   2.2173
 GAMMAs            1.2386   1.2397   1.2525   1.2646
 SON VEL,M/SEC     1218.2   1211.6   1155.7   1084.7
 MACH NUMBER        0.000    0.312    1.000    1.503

 PERFORMANCE PARAMETERS

 Ae/At                      2.0000   1.0000   1.2000
 CSTAR, M/SEC               1665.0   1665.0   1665.0
 CF                         0.2268   0.6941   0.9790
 Ivac, M/SEC                3514.1   2078.4   2200.9
 Isp, M/SEC                  377.5   1155.7   1630.0

 MOLE FRACTIONS

 *C              1.224-11 8.934-12 4.592-13 5.763-15
 *CH             3.291-11 2.430-11 1.817-12 4.221-14
 CH2             1.022 -9 7.999-10 1.367-10 1.140-11
 CH3             3.9288-8 3.3208-8 1.5410-8 5.9951-9
 CH2OH           4.853-10 3.905-10 1.133-10 2.183-11
 CH3O            8.521-11 6.689-11 1.546-11 2.166-12
 CH4             1.6831-7 1.5099-7 1.6318-7 2.4149-7
 CH3OH           3.906-10 3.283-10 1.899-10 1.090-10
 *CO             4.7376-1 4.7356-1 4.7138-1 4.6681-1
 *CO2            3.1260-2 3.1550-2 3.4466-2 3.9395-2
 COOH            4.3860-7 3.8006-7 1.2891-7 2.7765-8
 *C2             1.896-15 1.255-15 4.415-17 3.589-19
 C2H             1.476-12 1.063-12 1.094-13 4.665-15
 C2H2,acetylene  1.247 -9 1.020 -9 4.595-10 1.854-10
 C2H2,vinylidene 1.311-12 9.756-13 1.785-13 1.877-14
 CH2CO,ketene    2.267 -9 1.878 -9 9.524-10 4.546-10
 O(CH)2O         1.223-12 9.586-13 2.868-13 6.281-14
 HO(CO)2OH       4.774-15 3.730-15 1.088-15 2.309-16
 C2H3,vinyl      5.883-13 4.402-13 1.118-13 2.045-14
 CH3CO,acetyl    2.032-12 1.555-12 4.903-13 1.243-13
 C2H4            5.094-12 4.114-12 2.835-12 2.431-12
 C2H4O,ethylen-o 1.739-16 1.288-16 3.947-17 1.026-17
 CH3CHO,ethanal  4.540-13 3.587-13 2.008-13 1.264-13
 CH3COOH         3.359-14 2.645-14 1.437-14 8.723-15
 OHCH2COOH       2.356-16 1.735-16 5.018-17 1.206-17
 C2H5            4.126-15 3.043-15 1.166-15 4.471-16
 C2H6            2.937-15 2.283-15 1.897-15 2.445-15
 C2O             1.196-10 9.203-11 1.341-11 8.952-13
 C3H3,2-propynl  1.005-15 7.068-16 1.736-16 3.471-17
 C3H4,propyne    1.498-16 1.079-16 4.384-17 1.975-17
 C3O2            6.505-12 5.134-12 1.648-12 4.050-13
 *H              4.6468-3 4.3493-3 1.7761-3 4.4708-4
 HCO             5.9992-6 5.2215-6 1.8455-6 4.2100-7
 HCCO            7.383-11 5.722-11 1.171-11 1.371-12
 HO2             3.718 -9 2.968 -9 2.683-10 7.166-12
 *H2             3.4368-1 3.4415-1 3.4865-1 3.5441-1
 HCHO,formaldehy 1.4591-6 1.3032-6 7.7412-7 4.0704-7
 HCOOH           5.6728-7 5.0567-7 2.9545-7 1.5277-7
 H2O             1.4614-1 1.4593-1 1.4360-1 1.3891-1
 H2O2            4.871 -9 3.985 -9 5.948-10 3.545-11
 *O              3.9489-6 3.3521-6 4.1271-7 1.6499-8
 *OH             4.9731-4 4.5000-4 1.3278-4 2.0384-5
 *O2             6.8346-7 5.7992-7 7.0881-8 2.7805-9
 O3              1.267-15 8.591-16 1.275-17 2.287-20

  * THERMODYNAMIC PROPERTIES FITTED TO 20000.K

              THEORETICAL ROCKET PERFORMANCE ASSUMING EQUILIBRIUM

            COMPOSITION DURING EXPANSION FROM FINITE AREA COMBUSTOR

 Pin =   319.1 PSIA
 Ac/At =  2.0000      Pinj/Pinf =  1.055714
 CASE = test___________

             REACTANT                       MOLES         ENERGY      TEMP
                                                         KJ/KG-MOL      K
 FUEL        RP-1                       100.0000000    -24717.700    298.150
 OXIDANT     O2(L)                      100.0000000    -12979.000     90.170

 O/F=    1.48072  %FUEL= 40.310805  R,EQ.RATIO= 2.300000  PHI,EQ.RATIO= 2.300000

                 INJECTOR  COMB END  THROAT     EXIT
 Pinj/P            1.0000   1.1213   1.9130   3.7247
 P, BAR            22.000   19.620   11.500   5.9065
 T, K             2448.51  2418.80  2168.35  1882.25
 RHO, KG/CU M    1.8945 0 1.7104 0 1.1193 0 6.6249-1
 H, KJ/KG         -955.02 -1024.61 -1604.97 -2243.45
 U, KJ/KG        -2116.31 -2171.68 -2632.42 -3135.02
 G, KJ/KG        -32479.5 -32228.8 -29578.2 -26525.8
 S, KJ/(KG)(K)    12.8750  12.9007  12.9007  12.9007

 M, (1/n)          17.531   17.533   17.547   17.553
 (dLV/dLP)t      -1.00070 -1.00064 -1.00023 -1.00005
 (dLV/dLT)p        1.0158   1.0147   1.0057   1.0013
 Cp, KJ/(KG)(K)    2.4173   2.4041   2.2840   2.2014
 GAMMAs            1.2528   1.2539   1.2652   1.2750
 SON VEL,M/SEC     1206.2   1199.3   1140.1   1066.2
 MACH NUMBER        0.000    0.311    1.000    1.506

 PERFORMANCE PARAMETERS

 Ae/At                      2.0000   1.0000   1.2000
 CSTAR, M/SEC               1632.9   1632.9   1632.9
 CF                         0.2285   0.6982   0.9830
 Ivac, M/SEC                3447.8   2041.3   2160.7
 Isp, M/SEC                  373.1   1140.1   1605.3

 MOLE FRACTIONS

 *C              3.251-12 2.290-12 8.181-14 6.219-16
 *CH             1.270-11 9.106-12 5.106-13 7.989-15
 CH2             7.277-10 5.605-10 8.175-11 5.497-12
 CH3             5.6546-8 4.7737-8 2.2049-8 8.5783-9
 CH2OH           4.293-10 3.430-10 9.339-11 1.659-11
 CH3O            6.669-11 5.187-11 1.102-11 1.383-12
 CH4             4.5003-7 4.0893-7 5.0810-7 9.2056-7
 CH3OH           5.921-10 4.999-10 3.057-10 1.912-10
 *CO             4.7945-1 4.7922-1 4.7674-1 4.7194-1
 *CO2            2.6176-2 2.6460-2 2.9367-2 3.4340-2
 COOH            2.3477-7 2.0139-7 6.1842-8 1.1634-8
 *C2             7.021-16 4.489-16 1.114-17 5.618-20
 C2H             1.149-12 8.119-13 6.957-14 2.323-15
 C2H2,acetylene  2.527 -9 2.072 -9 9.619-10 4.086-10
 C2H2,vinylidene 1.649-12 1.216-12 2.040-13 1.921-14
 CH2CO,ketene    3.858 -9 3.208 -9 1.701 -9 8.715-10
 O(CH)2O         1.240-12 9.689-13 2.849-13 6.148-14
 HO(CO)2OH       2.963-15 2.310-15 6.650-16 1.399-16
 C2H3,vinyl      1.047-12 7.813-13 1.959-13 3.557-14
 CH3CO,acetyl    3.193-12 2.445-12 7.859-13 2.071-13
 C2H4            1.830-11 1.497-11 1.190-11 1.261-11
 C2H4O,ethylen-o 3.198-16 2.378-16 7.640-17 2.152-17
 CH3CHO,ethanal  1.151-12 9.191-13 5.796-13 4.358-13
 CH3COOH         6.603-14 5.255-14 3.222-14 2.346-14
 OHCH2COOH       2.609-16 1.928-16 5.850-17 1.525-17
 C2H5            1.291-14 9.600-15 4.069-15 1.820-15
 C2H6            1.647-14 1.307-14 1.365-14 2.456-14
 C2H5OH          1.159-16 8.609-17 4.778-17 3.387-17
 C2O             7.422-11 5.613-11 6.909-12 3.672-13
 C3H3,2-propynl  2.990-15 2.110-15 5.447-16 1.185-16
 C3H4,allene     3.038-16 2.206-16 9.929-17 5.233-17
 C3H4,propyne    6.919-16 5.047-16 2.369-16 1.327-16
 C3O2            8.239-12 6.494-12 2.079-12 5.140-13
 *H              2.5906-3 2.3916-3 8.4835-4 1.7594-4
 HCO             4.1663-6 3.5902-6 1.1501-6 2.2950-7
 HCCO            6.530-11 5.008-11 9.294-12 9.558-13
 HO2             5.786-10 4.474-10 2.916-11 4.943-13
 *H2             3.6957-1 3.6998-1 3.7388-1 3.7930-1
 HCHO,formaldehy 1.5868-6 1.4162-6 8.3943-7 4.4202-7
 HCOOH           4.8159-7 4.2910-7 2.5101-7 1.3084-7
 H2O             1.2203-1 1.2178-1 1.1912-1 1.1424-1
 H2O2            1.177 -9 9.408-10 1.109-10 4.770-12
 *O              7.7214-7 6.3540-7 5.6912-8 1.4621-9
 *OH             1.8415-4 1.6366-4 4.0182-5 4.7757-6
 *O2             1.050 -7 8.636 -8 7.668 -9 1.926-10

  * THERMODYNAMIC PROPERTIES FITTED TO 20000.K

              THEORETICAL ROCKET PERFORMANCE ASSUMING EQUILIBRIUM

            COMPOSITION DURING EXPANSION FROM FINITE AREA COMBUSTOR

 Pin =   319.1 PSIA
 Ac/At =  2.0000      Pinj/Pinf =  1.056082
 CASE = test___________

             REACTANT                       MOLES         ENERGY      TEMP
                                                         KJ/KG-MOL      K
 FUEL        RP-1                       100.0000000    -24717.700    298.150
 OXIDANT     O2(L)                      100.0000000    -12979.000     90.170

 O/F=    1.41903  %FUEL= 41.338925  R,EQ.RATIO= 2.400000  PHI,EQ.RATIO= 2.400000

                 INJECTOR  COMB END  THROAT     EXIT
 Pinj/P            1.0000   1.1222   1.9206   3.7524
 P, BAR            22.000   19.605   11.455   5.8629
 T, K             2307.32  2278.06  2031.91  1754.81
 RHO, KG/CU M    1.9617 0 1.7707 0 1.1605 0 6.8786-1
 H, KJ/KG         -969.04 -1036.67 -1598.90 -2213.97
 U, KJ/KG        -2090.50 -2143.84 -2586.00 -3066.31
 G, KJ/KG        -30780.3 -30530.3 -27905.6 -24933.2
 S, KJ/(KG)(K)    12.9203  12.9468  12.9468  12.9468

 M, (1/n)          17.106   17.108   17.115   17.118
 (dLV/dLP)t      -1.00036 -1.00033 -1.00010 -1.00003
 (dLV/dLT)p        1.0085   1.0078   1.0027   1.0006
 Cp, KJ/(KG)(K)    2.3519   2.3416   2.2553   2.1957
 GAMMAs            1.2655   1.2666   1.2762   1.2844
 SON VEL,M/SEC     1191.3   1184.2   1122.4   1046.3
 MACH NUMBER        0.000    0.311    1.000    1.508

 PERFORMANCE PARAMETERS

 Ae/At                      2.0000   1.0000   1.2000
 CSTAR, M/SEC               1599.4   1599.4   1599.4
 CF                         0.2299   0.7017   0.9866
 Ivac, M/SEC                3378.2   2001.8   2118.1
 Isp, M/SEC                  367.8   1122.4   1577.9

 MOLE FRACTIONS

 *C              7.388-13 5.009-13 1.229-14 5.534-17
 *CH             4.320-12 3.006-12 1.253-13 1.299-15
 CH2             4.833-10 3.660-10 4.541-11 2.444-12
 CH3             8.1164-8 6.8462-8 3.1569-8 1.2325-8
 CH2OH           3.640-10 2.887-10 7.387-11 1.207-11
 CH3O            4.955-11 3.818-11 7.458-12 8.373-13
 CH4             1.2782-6 1.1782-6 1.6992-6 3.8225-6
 CH3OH           9.055-10 7.686-10 5.000-10 3.431-10
 *CO             4.8420-1 4.8396-1 4.8135-1 4.7651-1
 *CO2            2.1765-2 2.2039-2 2.4885-2 2.9803-2
 COOH            1.1787-7 1.0005-7 2.7763-8 4.5349-9
 *C2             2.268-16 1.397-16 2.424-18 7.436-21
 C2H             8.380-13 5.809-13 4.137-14 1.075-15
 C2H2,acetylene  5.279 -9 4.339 -9 2.088 -9 9.417-10
 C2H2,vinylidene 2.026-12 1.479-12 2.281-13 1.922-14
 CH2CO,ketene    6.7278-9 5.6176-9 3.1338-9 1.7373-9
 O(CH)2O         1.235-12 9.631-13 2.794-13 5.966-14
 HO(CO)2OH       1.766-15 1.374-15 3.924-16 8.206-17
 C2H3,vinyl      1.874-12 1.396-12 3.472-13 6.295-14
 CH3CO,acetyl    5.061-12 3.881-12 1.280-12 3.530-13
 C2H4            7.083-11 5.877-11 5.453-11 7.261-11
 C2H4O,ethylen-o 5.990-16 4.473-16 1.520-16 4.687-17
 CH3CHO,ethanal  3.072-12 2.481-12 1.781-12 1.624-12
 CH3COOH         1.350-13 1.087-13 7.609-14 6.750-14
 OHCH2COOH       2.869-16 2.129-16 6.843-17 1.956-17
 C2H5            4.252-14 3.192-14 1.512-14 8.008-15
 C2H6            1.027-13 8.343-14 1.113-13 2.865-13
 C2H5OH          4.043-16 3.050-16 2.015-16 1.850-16
 C2O             4.309-11 3.201-11 3.318-12 1.393-13
 C3H3,2-propynl  9.335-15 6.615-15 1.812-15 4.344-16
 C3H4,allene     1.499-15 1.104-15 5.791-16 3.849-16
 C3H4,propyne    3.490-15 2.582-15 1.419-15 1.008-15
 C3O2            1.054-11 8.301-12 2.663-12 6.663-13
 *H              1.3460-3 1.2246-3 3.7572-4 6.3651-5
 HCO             2.7498-6 2.3449-6 6.7941-7 1.1797-7
 HCCO            5.561-11 4.219-11 7.097-12 6.400-13
 HO2             7.512-11 5.613-11 2.607-12 2.737-14
 *H2             3.9322-1 3.9357-1 3.9699-1 4.0211-1
 HCHO,formaldehy 1.7079-6 1.5236-6 9.0319-7 4.7726-7
 HCOOH           4.0015-7 3.5652-7 2.0952-7 1.1042-7
 H2O             9.9398-2 9.9139-2 9.6391-2 9.1505-2
 H2O2            2.466-10 1.922-10 1.777-11 5.415-13
 *O              1.285 -7 1.023 -7 6.591 -9 1.064-10
 *OH             6.1514-5 5.3633-5 1.0883-5 9.8788-7
 *O2             1.355 -8 1.078 -8 6.869-10 1.078-11

  * THERMODYNAMIC PROPERTIES FITTED TO 20000.K

              THEORETICAL ROCKET PERFORMANCE ASSUMING EQUILIBRIUM

            COMPOSITION DURING EXPANSION FROM FINITE AREA COMBUSTOR

 Pin =   319.1 PSIA
 Ac/At =  2.0000      Pinj/Pinf =  1.056408
 CASE = test___________

             REACTANT                       MOLES         ENERGY      TEMP
                                                         KJ/KG-MOL      K
 FUEL        RP-1                       100.0000000    -24717.700    298.150
 OXIDANT     O2(L)                      100.0000000    -12979.000     90.170

 O/F=    1.36227  %FUEL= 42.332226  R,EQ.RATIO= 2.500000  PHI,EQ.RATIO= 2.500000

                 INJECTOR  COMB END  THROAT     EXIT
 Pinj/P            1.0000   1.1229   1.9275   3.7781
 P, BAR            22.000   19.592   11.414   5.8230
 T, K             2169.60  2141.02  1901.39  1634.56
 RHO, KG/CU M    2.0381 0 1.8393 0 1.2068 0 7.1627-1
 H, KJ/KG         -982.58 -1048.04 -1590.77 -2181.61
 U, KJ/KG        -2062.04 -2113.24 -2536.54 -2994.59
 G, KJ/KG        -29084.0 -28837.7 -26270.1 -23397.6
 S, KJ/(KG)(K)    12.9523  12.9796  12.9796  12.9796

 M, (1/n)          16.711   16.712   16.716   16.717
 (dLV/dLP)t      -1.00019 -1.00017 -1.00007 -1.00008
 (dLV/dLT)p        1.0043   1.0039   1.0013   1.0008
 Cp, KJ/(KG)(K)    2.3121   2.3042   2.2408   2.1956
 GAMMAs            1.2769   1.2779   1.2862   1.2933
 SON VEL,M/SEC     1174.0   1166.7   1102.9   1025.4
 MACH NUMBER        0.000    0.310    1.000    1.510

 PERFORMANCE PARAMETERS

 Ae/At                      2.0000   1.0000   1.2000
 CSTAR, M/SEC               1564.6   1564.6   1564.6
 CF                         0.2313   0.7049   0.9898
 Ivac, M/SEC                3305.7   1960.4   2073.6
 Isp, M/SEC                  361.8   1102.9   1548.6

 MOLE FRACTIONS

 *C              1.440-13 9.379-14 1.555-15 4.007-18
 *CH             1.305-12 8.790-13 2.692-14 1.799-16
 CH2             3.023-10 2.249-10 2.360-11 1.004-12
 CH3             1.1783-7 9.9338-8 4.5853-8 1.8018-8
 CH2OH           2.967-10 2.337-10 5.612-11 8.404-12
 CH3O            3.504-11 2.675-11 4.801-12 4.796-13
 CH4             3.9283-6 3.6781-6 6.2244-6 1.7699-5
 CH3OH           1.406 -9 1.201 -9 8.363-10 6.348-10
 *CO             4.8834-1 4.8810-1 4.8550-1 4.8080-1
 *CO2            1.7816-2 1.8075-2 2.0787-2 2.5527-2
 COOH            5.4970-8 4.6146-8 1.1525-8 1.6186-9
 C2H             5.846-13 3.971-13 2.339-14 4.668-16
 C2H2,acetylene  1.1648-8 9.6068-9 4.8224-9 2.3296-9
 C2H2,vinylidene 2.485-12 1.797-12 2.544-13 1.913-14
 CH2CO,ketene    1.2200-8 1.0238-8 6.0457-9 3.6614-9
 O(CH)2O         1.215-12 9.452-13 2.715-13 5.751-14
 HO(CO)2OH       9.959-16 7.740-16 2.199-16 4.574-17
 C2H3,vinyl      3.463-12 2.575-12 6.378-13 1.161-13
 CH3CO,acetyl    8.221-12 6.319-12 2.151-12 6.260-13
 C2H4            3.041-10 2.564-10 2.813-10 4.810-10
 C2H4O,ethylen-o 1.163-15 8.729-16 3.165-16 1.080-16
 CH3CHO,ethanal  8.788-12 7.194-12 5.948-12 6.697-12
 CH3COOH         2.896-13 2.364-13 1.912-13 2.106-13
 OHCH2COOH       3.127-16 2.334-16 8.014-17 2.536-17
 C2H5            1.518-13 1.152-13 6.171-14 3.940-14
 C2H6            7.370-13 6.139-13 1.066-12 4.052-12
 C2H5OH          1.534-15 1.178-15 9.409-16 1.145-15
 C2O             2.360-11 1.721-11 1.494-12 4.887-14
 C3H3,2-propynl  3.174-14 2.262-14 6.633-15 1.780-15
 C3H4,allene     8.390-15 6.275-15 3.897-15 3.348-15
 C3H4,propyne    2.001-14 1.505-14 9.834-15 9.087-15
 C3H5,allyl      2.042-16 1.468-16 8.324-17 6.723-17
 C3H6,propylene  4.828-16 3.667-16 4.682-16 1.308-15
 C3O2            1.380-11 1.087-11 3.509-12 8.935-13
 C4H2,butadiyne  1.321-16 8.962-17 2.203-17 4.951-18
 *H              6.5078-4 5.8299-4 1.5372-4 2.0990-5
 HCO             1.7247-6 1.4547-6 3.7977-7 5.6869-8
 HCCO            4.609-11 3.459-11 5.265-12 4.140-13
 HO2             7.930-12 5.713-12 1.858-13 1.165-15
 *H2             4.1482-1 4.1513-1 4.1813-1 4.2294-1
 HCHO,formaldehy 1.8249-6 1.6277-6 9.6675-7 5.1341-7
 HCOOH           3.2341-7 2.8823-7 1.7063-7 9.1137-8
 H2O             7.8341-2 7.8088-2 7.5413-2 7.0695-2
 H2O2            4.375-11 3.322-11 2.378-12 5.006-14
 *O              1.792 -8 1.377 -8 6.274-10 6.153-12
 *OH             1.8305-5 1.5637-5 2.5966-6 1.7642-7
 *O2             1.431 -9 1.099 -9 4.936-11 4.669-13

  * THERMODYNAMIC PROPERTIES FITTED TO 20000.K

              THEORETICAL ROCKET PERFORMANCE ASSUMING EQUILIBRIUM

            COMPOSITION DURING EXPANSION FROM FINITE AREA COMBUSTOR

 Pin =   319.1 PSIA
 Ac/At =  2.0000      Pinj/Pinf =  1.056704
 CASE = test___________

             REACTANT                       MOLES         ENERGY      TEMP
                                                         KJ/KG-MOL      K
 FUEL        RP-1                       100.0000000    -24717.700    298.150
 OXIDANT     O2(L)                      100.0000000    -12979.000     90.170

 O/F=    1.30987  %FUEL= 43.292449  R,EQ.RATIO= 2.600000  PHI,EQ.RATIO= 2.600000

                 INJECTOR  COMB END  THROAT     EXIT
 Pinj/P            1.0000   1.1236   1.9339   3.8023
 P, BAR            22.000   19.580   11.376   5.7859
 T, K             2036.21  2008.48  1776.82  1521.13
 RHO, KG/CU M    2.1238 0 1.9164 0 1.2587 0 7.4793-1
 H, KJ/KG         -995.66 -1058.80 -1581.01 -2147.02
 U, KJ/KG        -2031.52 -2080.54 -2484.79 -2920.62
 G, KJ/KG        -27407.3 -27167.1 -24677.9 -21920.2
 S, KJ/(KG)(K)    12.9710  12.9990  12.9990  12.9990

 M, (1/n)          16.344   16.344   16.346   16.349
 (dLV/dLP)t      -1.00013 -1.00012 -1.00012 -1.00038
 (dLV/dLT)p        1.0023   1.0021   1.0012   1.0035
 Cp, KJ/(KG)(K)    2.2896   2.2832   2.2351   2.2073
 GAMMAs            1.2872   1.2881   1.2954   1.3015
 SON VEL,M/SEC     1154.7   1147.2   1082.0   1003.4
 MACH NUMBER        0.000    0.310    1.000    1.512

 PERFORMANCE PARAMETERS

 Ae/At                      2.0000   1.0000   1.2000
 CSTAR, M/SEC               1528.6   1528.6   1528.6
 CF                         0.2325   0.7078   0.9927
 Ivac, M/SEC                3230.7   1917.3   2027.3
 Isp, M/SEC                  355.3   1082.0   1517.5

 MOLE FRACTIONS

 *C              2.423-14 1.511-14 1.653-16 2.342-19
 *CH             3.527-13 2.297-13 5.071-15 2.118-17
 CH2             1.804-10 1.317-10 1.159-11 3.834-13
 CH3             1.7634-7 1.4863-7 6.8823-8 2.7275-8
 CH2OH           2.328-10 1.820-10 4.093-11 5.584-12
 CH3O            2.362-11 1.786-11 2.935-12 2.590-13
 CH4             1.3387-5 1.2752-5 2.5648-5 9.3917-5
 CH3OH           2.2314-9 1.9194-9 1.4394-9 1.2183-9
 *CO             4.9210-1 4.9188-1 4.8944-1 4.8505-1
 *CO2            1.4150-2 1.4385-2 1.6871-2 2.1277-2
 COOH            2.340 -8 1.942 -8 4.338 -9 5.178-10
 C2H             4.013-13 2.668-13 1.288-14 1.945-16
 C2H2,acetylene  2.8149-8 2.3315-8 1.2283-8 6.4140-9
 C2H2,vinylidene 3.144-12 2.250-12 2.920-13 1.950-14
 CH2CO,ketene    2.3486-8 1.9825-8 1.2478-8 8.3337-9
 O(CH)2O         1.183-12 9.190-13 2.620-13 5.516-14
 HO(CO)2OH       5.166-16 4.011-16 1.136-16 2.351-17
 C2H3,vinyl      6.838-12 5.080-12 1.258-12 2.306-13
 CH3CO,acetyl    1.398-11 1.077-11 3.807-12 1.178-12
 C2H4            1.5098-9 1.2958-9 1.7063-9 3.8328-9
 C2H4O,ethylen-o 2.393-15 1.809-15 7.054-16 2.694-16
 CH3CHO,ethanal  2.764-11 2.297-11 2.216-11 3.139-11
 CH3COOH         6.586-13 5.459-13 5.175-13 7.217-13
 OHCH2COOH       3.353-16 2.519-16 9.319-17 3.300-17
 C2H5            6.119-13 4.705-13 2.885-13 2.261-13
 C2H6            6.366-12 5.454-12 1.260-11 7.313-11
 C2H5OH          6.517-15 5.107-15 5.013-15 8.281-15
 C2O             1.235-11 8.829-12 6.360-13 1.596-14
 C3H3,2-propynl  1.241-13 8.902-14 2.825-14 8.605-15
 C3H4,allene     5.648-14 4.299-14 3.215-14 3.663-14
 C3H4,propyne    1.383-13 1.059-13 8.373-14 1.033-13
 C3H4,cyclo-     2.682-16 1.904-16 7.322-17 3.165-17
 C3H5,allyl      1.537-15 1.127-15 7.859-16 8.683-16
 C3H6,propylene  6.467-15 5.065-15 8.867-15 3.964-14
 C3H6O,acetone   4.378-17 3.375-17 5.071-17 1.797-16
 C3H8            7.676-18 5.935-18 1.639-17 1.623-16
 C3O2            1.884-11 1.484-11 4.844-12 1.262-12
 C4H2,butadiyne  7.298-16 4.993-16 1.350-16 3.548-17
 *H              2.9181-4 2.5713-4 5.7734-5 6.2552-6
 HCO             1.0264-6 8.5573-7 2.0009-7 2.5573-8
 HCCO            3.775-11 2.801-11 3.845-12 2.617-13
 HO2             6.533-13 4.526-13 1.006-14 3.615-17
 *H2             4.3456-1 4.3482-1 4.3742-1 4.4171-1
 HCHO,formaldehy 1.9407-6 1.7309-6 1.0315-6 5.5104-7
 HCOOH           2.5104-7 2.2387-7 1.3381-7 7.2576-8
 H2O             5.8878-2 5.8645-2 5.6184-2 5.1858-2
 H2O2            6.336-12 4.678-12 2.548-13 3.594-15
 *O              2.040 -9 1.509 -9 4.753-11 2.726-13
 *OH             4.7517-6 3.9709-6 5.3230-7 2.6449-8
 *O2             1.186-10 8.762-11 2.709-12 1.485-14

  * THERMODYNAMIC PROPERTIES FITTED TO 20000.K

              THEORETICAL ROCKET PERFORMANCE ASSUMING EQUILIBRIUM

            COMPOSITION DURING EXPANSION FROM FINITE AREA COMBUSTOR

 Pin =   319.1 PSIA
 Ac/At =  2.0000      Pinj/Pinf =  1.056975
 CASE = test___________

             REACTANT                       MOLES         ENERGY      TEMP
                                                         KJ/KG-MOL      K
 FUEL        RP-1                       100.0000000    -24717.700    298.150
 OXIDANT     O2(L)                      100.0000000    -12979.000     90.170

 O/F=    1.26136  %FUEL= 44.221218  R,EQ.RATIO= 2.700000  PHI,EQ.RATIO= 2.700000

                 INJECTOR  COMB END  THROAT     EXIT
 Pinj/P            1.0000   1.1242   1.9397   3.8197
 P, BAR            22.000   19.569   11.342   5.7596
 T, K             1907.65  1880.88  1658.32  1416.51
 RHO, KG/CU M    2.2197 0 2.0026 0 1.3167 0 7.8347-1
 H, KJ/KG        -1008.32 -1069.01 -1569.86 -2109.71
 U, KJ/KG        -1999.44 -2046.21 -2431.28 -2844.85
 G, KJ/KG        -25761.7 -25529.3 -23135.8 -20531.0
 S, KJ/(KG)(K)    12.9759  13.0047  13.0047  13.0047

 M, (1/n)          16.003   16.003   16.006   16.021
 (dLV/dLP)t      -1.00024 -1.00023 -1.00050 -1.00225
 (dLV/dLT)p        1.0024   1.0022   1.0043   1.0226
 Cp, KJ/(KG)(K)    2.2800   2.2746   2.2438   2.3041
 GAMMAs            1.2965   1.2974   1.3038   1.3042
 SON VEL,M/SEC     1133.6   1126.0   1059.8    979.2
 MACH NUMBER        0.000    0.309    1.000    1.516

 PERFORMANCE PARAMETERS

 Ae/At                      2.0000   1.0000   1.2000
 CSTAR, M/SEC               1491.7   1491.7   1491.7
 CF                         0.2336   0.7105   0.9950
 Ivac, M/SEC                3153.3   1872.6   1979.5
 Isp, M/SEC                  348.4   1059.8   1484.2

 MOLE FRACTIONS

 *C              3.567-15 2.123-15 1.492-17 1.191-20
 *CH             8.689-14 5.454-14 8.505-16 2.259-18
 CH2             1.053-10 7.537-11 5.497-12 1.424-13
 CH3             2.8068-7 2.3659-7 1.0999-7 4.3713-8
 CH2OH           1.758-10 1.364-10 2.863-11 3.574-12
 CH3O            1.516-11 1.135-11 1.702-12 1.336-13
 CH4             5.2546-5 5.1015-5 1.2338-4 5.7200-4
 CH3OH           3.6379-9 3.1541-9 2.5625-9 2.4062-9
 *CO             4.9569-1 4.9550-1 4.9337-1 4.8947-1
 *CO2            1.0606-2 1.0806-2 1.2952-2 1.6867-2
 COOH            8.813 -9 7.220 -9 1.434 -9 1.475-10
 C2H             2.857-13 1.857-13 7.269-15 8.349-17
 C2H2,acetylene  7.9267-8 6.5989-8 3.6652-8 2.0464-8
 C2H2,vinylidene 4.341-12 3.076-12 3.642-13 2.154-14
 CH2CO,ketene    4.9646-8 4.2192-8 2.8469-8 2.0835-8
 O(CH)2O         1.143-12 8.871-13 2.516-13 5.293-14
 HO(CO)2OH       2.333-16 1.810-16 5.124-17 1.073-17
 C2H3,vinyl      1.534-11 1.139-11 2.823-12 5.173-13
 CH3CO,acetyl    2.572-11 1.990-11 7.335-12 2.402-12
 C2H4            9.2783-9 8.1232-9 1.3015-8 3.7625-8
 C2H4O,ethylen-o 5.413-15 4.121-15 1.742-15 7.395-16
 CH3CHO,ethanal  9.931-11 8.391-11 9.563-11 1.683-10
 CH3COOH         1.603-12 1.352-12 1.523-12 2.675-12
 OHCH2COOH       3.458-16 2.618-16 1.053-16 4.201-17
 C2H5            2.979-12 2.324-12 1.650-12 1.559-12
 C2H6            7.123-11 6.297-11 1.977-10 1.703 -9
 C2H5OH          3.229-14 2.588-14 3.173-14 7.005-14
 CH3OCH3         2.153-16 1.651-16 1.329-16 1.600-16
 C2O             6.320-12 4.423-12 2.616-13 5.090-15
 C3H3,2-propynl  6.123-13 4.429-13 1.532-13 5.216-14
 C3H4,allene     5.042-13 3.916-13 3.580-13 5.285-13
 C3H4,propyne    1.271-12 9.931-13 9.644-13 1.551-12
 C3H4,cyclo-     1.706-15 1.227-15 5.400-16 2.778-16
 C3H5,allyl      1.547-14 1.160-14 1.011-14 1.492-14
 C3H6,propylene  1.218-13 9.873-14 2.426-13 1.681-12
 C3H6,cyclo-     3.911-16 3.070-16 5.561-16 2.507-15
 C3H6O,acetone   5.226-16 4.163-16 8.651-16 4.676-15
 C3H6O,propanal  3.091-16 2.380-16 3.581-16 1.221-15
 C3H8            2.492-16 2.015-16 8.635-16 1.510-14
 C3O2            2.766-11 2.180-11 7.222-12 1.928-12
 C4H2,butadiyne  5.502-15 3.802-15 1.143-15 3.441-16
 C4H6,butadiene  5.970-17 4.445-17 8.795-17 5.222-16
 *H              1.2073-4 1.0450-4 1.9782-5 1.7185-6
 HCO             5.7784-7 4.7582-7 9.9005-8 1.0884-8
 HCCO            3.140-11 2.302-11 2.835-12 1.678-13
 HO2             3.911-14 2.596-14 3.849-16 8.206-19
 *H2             4.5251-1 4.5272-1 4.5478-1 4.5776-1
 HCHO,formaldehy 2.0576-6 1.8355-6 1.0985-6 5.9043-7
 HCOOH           1.8228-7 1.6269-7 9.8456-8 5.4639-8
 H2O             4.1018-2 4.0817-2 3.8754-2 3.5335-2
 H2O2            7.007-13 5.016-13 2.044-14 1.986-16
 *O              1.817-10 1.290-10 2.743-12 9.479-15
 *OH             1.0378-6 8.4672-7 9.0356-8 3.3434-9
 *O2             7.180-12 5.088-12 1.057-13 3.474-16

  * THERMODYNAMIC PROPERTIES FITTED TO 20000.K

              THEORETICAL ROCKET PERFORMANCE ASSUMING EQUILIBRIUM

            COMPOSITION DURING EXPANSION FROM FINITE AREA COMBUSTOR

 Pin =   319.1 PSIA
 Ac/At =  2.0000      Pinj/Pinf =  1.057165
 CASE = test___________

             REACTANT                       MOLES         ENERGY      TEMP
                                                         KJ/KG-MOL      K
 FUEL        RP-1                       100.0000000    -24717.700    298.150
 OXIDANT     O2(L)                      100.0000000    -12979.000     90.170

 O/F=    1.21631  %FUEL= 45.120054  R,EQ.RATIO= 2.800000  PHI,EQ.RATIO= 2.800000

                 INJECTOR  COMB END  THROAT     EXIT
 Pinj/P            1.0000   1.1246   1.9418   3.7945
 P, BAR            22.000   19.562   11.330   5.7978
 T, K             1784.80  1759.09  1548.72  1334.35
 RHO, KG/CU M    2.3263 0 2.0987 0 1.3819 0 8.2484-1
 H, KJ/KG        -1020.57 -1078.66 -1556.45 -2065.11
 U, KJ/KG        -1966.29 -2010.75 -2376.30 -2768.01
 G, KJ/KG        -24162.6 -23939.2 -21683.1 -19405.9
 S, KJ/(KG)(K)    12.9662  12.9957  12.9957  12.9957

 M, (1/n)          15.691   15.691   15.706   15.784
 (dLV/dLP)t      -1.00102 -1.00101 -1.00277 -1.01122
 (dLV/dLT)p        1.0081   1.0081   1.0251   1.1202
 Cp, KJ/(KG)(K)    2.2966   2.2923   2.3395   2.8616
 GAMMAs            1.3046   1.3054   1.3072   1.2817
 SON VEL,M/SEC     1110.7   1103.0   1035.2    949.2
 MACH NUMBER        0.000    0.309    1.000    1.523

 PERFORMANCE PARAMETERS

 Ae/At                      2.0000   1.0000   1.2000
 CSTAR, M/SEC               1454.6   1454.6   1454.6
 CF                         0.2343   0.7117   0.9936
 Ivac, M/SEC                3075.6   1827.2   1931.7
 Isp, M/SEC                  340.8   1035.3   1445.4

 MOLE FRACTIONS

 *C              4.869-16 2.757-16 1.282-18 9.121-22
 *CH             2.070-14 1.250-14 1.404-16 3.356-19
 CH2             6.388-11 4.478-11 2.724-12 6.465-14
 CH3             5.0663-7 4.2730-7 1.9720-7 7.3513-8
 CH2OH           1.278-10 9.838-11 1.941-11 2.405-12
 CH3O            9.274-12 6.869-12 9.491-13 7.436-14
 CH4             2.5396-4 2.5178-4 7.1296-4 3.1887-3
 CH3OH           6.1078-9 5.3430-9 4.6739-9 4.4455-9
 *CO             4.9927-1 4.9912-1 4.9742-1 4.9387-1
 *CO2            7.0507-3 7.1999-3 8.9155-3 1.2503-2
 COOH            2.753 -9 2.225 -9 4.021-10 4.377-11
 C2H             2.389-13 1.518-13 4.811-15 4.813-17
 C2H2,acetylene  2.9573-7 2.4774-7 1.4161-7 7.1104-8
 C2H2,vinylidene 7.425-12 5.209-12 5.558-13 2.888-14
 CH2CO,ketene    1.2304-7 1.0540-7 7.5189-8 5.2945-8
 O(CH)2O         1.099-12 8.520-13 2.417-13 5.204-14
 C2H3,vinyl      4.442-11 3.300-11 8.026-12 1.310-12
 CH3CO,acetyl    5.468-11 4.251-11 1.617-11 5.098-12
 C2H4            8.0429-8 7.2012-8 1.3532-7 3.5804-7
 C2H4O,ethylen-o 1.437-14 1.104-14 4.987-15 2.050-15
 CH3CHO,ethanal  4.360-10 3.754-10 4.943-10 8.485-10
 CH3COOH         4.201-12 3.612-12 4.790-12 8.857-12
 OHCH2COOH       3.235-16 2.471-16 1.093-16 4.873-17
 C2H5            1.995-11 1.583-11 1.259-11 1.082-11
 C2H6            1.1791-9 1.0793-9 4.3967-9 3.5215-8
 C2H5OH          1.999-13 1.643-13 2.450-13 5.324-13
 CH3OCH3         1.077-15 8.435-16 7.982-16 9.412-16
 C2O             3.363-12 2.302-12 1.128-13 2.044-15
 C3H3,1-propynl  3.954-16 2.593-16 3.394-17 2.490-18
 C3H3,2-propynl  4.625-12 3.380-12 1.230-12 3.590-13
 C3H4,allene     7.253-12 5.765-12 6.153-12 7.920-12
 C3H4,propyne    1.885-11 1.508-11 1.718-11 2.407-11
 C3H4,cyclo-     1.695-14 1.239-14 5.995-15 2.668-15
 C3H5,allyl      2.532-13 1.947-13 2.025-13 2.622-13
 C3H6,propylene  3.926-12 3.308-12 1.077-11 6.627-11
 C3H6,cyclo-     1.079-14 8.782-15 2.063-14 8.264-14
 C3H6O,acetone   9.313-15 7.697-15 2.116-14 1.083-13
 C3H6O,propanal  4.675-15 3.724-15 7.230-15 2.334-14
 C3H7,n-propyl   2.390-16 1.756-16 2.087-16 3.424-16
 C3H7,i-propyl   2.128-16 1.583-16 2.107-16 4.010-16
 C3H8            1.446-14 1.229-14 7.651-14 1.207-12
 C3O2            4.663-11 3.683-11 1.231-11 3.198-12
 C4H2,butadiyne  7.315-14 5.119-14 1.632-14 4.023-15
 C4H6,butadiene  3.788-15 2.948-15 7.984-15 4.049-14
 C4H6,1butyne    2.507-16 1.862-16 3.221-16 8.813-16
 C4H6,2butyne    2.319-16 1.764-16 3.820-16 1.408-15
 C4H8,1-butene   4.465-17 3.495-17 1.745-16 2.124-15
 C4H8,cis2-buten 1.919-17 1.519-17 8.413-17 1.173-15
 C4H8,tr2-butene 2.154-17 1.705-17 9.453-17 1.323-15
 C4H8,isobutene  2.448-17 1.948-17 1.137-16 1.704-15
 C5H6,1,3cyclo-  5.167-18 4.036-18 1.971-17 2.279-16
 C6H6            2.231-18 1.877-18 3.214-17 2.076-15
 *H              4.6009-5 3.9062-5 6.3268-6 5.3622-7
 HCO             3.0748-7 2.4987-7 4.6771-8 5.0747-9
 HCCO            2.824-11 2.046-11 2.263-12 1.260-13
 HO2             1.492-15 9.454-16 9.900-18 2.267-20
 *H2             4.6851-1 4.6867-1 4.6945-1 4.6791-1
 HCHO,formaldehy 2.1770-6 1.9428-6 1.1683-6 6.2999-7
 HCOOH           1.1642-7 1.0403-7 6.4613-8 3.8856-8
 H2O             2.4865-2 2.4714-2 2.3489-2 2.2534-2
 H2O2            5.197-14 3.599-14 1.150-15 1.218-17
 *O              1.184-11 8.037-12 1.208-13 4.222-16
 *OH             1.785 -7 1.419 -7 1.242 -8 4.722-10
 *O2             2.784-13 1.886-13 2.787-15 9.862-18

  * THERMODYNAMIC PROPERTIES FITTED TO 20000.K

              THEORETICAL ROCKET PERFORMANCE ASSUMING EQUILIBRIUM

            COMPOSITION DURING EXPANSION FROM FINITE AREA COMBUSTOR

 Pin =   319.1 PSIA
 Ac/At =  2.0000      Pinj/Pinf =  1.056896
 CASE = test___________

             REACTANT                       MOLES         ENERGY      TEMP
                                                         KJ/KG-MOL      K
 FUEL        RP-1                       100.0000000    -24717.700    298.150
 OXIDANT     O2(L)                      100.0000000    -12979.000     90.170

 O/F=    1.17437  %FUEL= 45.990382  R,EQ.RATIO= 2.900000  PHI,EQ.RATIO= 2.900000

                 INJECTOR  COMB END  THROAT     EXIT
 Pinj/P            1.0000   1.1240   1.9284   3.7122
 P, BAR            22.000   19.573   11.409   5.9265
 T, K             1674.32  1650.00  1464.38  1289.76
 RHO, KG/CU M    2.4397 0 2.2026 0 1.4535 0 8.6809-1
 H, KJ/KG        -1032.43 -1087.52 -1538.44 -2017.59
 U, KJ/KG        -1934.19 -1976.15 -2323.32 -2700.29
 G, KJ/KG        -22699.0 -22488.5 -20531.8 -18746.1
 S, KJ/(KG)(K)    12.9405  12.9703  12.9703  12.9703

 M, (1/n)          15.438   15.438   15.513   15.708
 (dLV/dLP)t      -1.00583 -1.00588 -1.01260 -1.02625
 (dLV/dLT)p        1.0484   1.0496   1.1215   1.2921
 Cp, KJ/(KG)(K)    2.4735   2.4777   2.8443   3.9064
 GAMMAs            1.3046   1.3048   1.2894   1.2499
 SON VEL,M/SEC     1084.6   1076.8   1006.0    923.8
 MACH NUMBER        0.000    0.308    1.000    1.520

 PERFORMANCE PARAMETERS

 Ae/At                      2.0000   1.0000   1.2000
 CSTAR, M/SEC               1423.6   1423.6   1423.6
 CF                         0.2332   0.7067   0.9860
 Ivac, M/SEC                3009.1   1786.2   1890.0
 Isp, M/SEC                  331.9   1006.0   1403.7

 MOLE FRACTIONS

 *CH             6.217-15 3.628-15 3.628-17 1.251-19
 CH2             4.970-11 3.422-11 1.830-12 4.704-14
 CH3             1.1996-6 1.0125-6 4.0605-7 1.1713-7
 CH2OH           9.097-11 6.966-11 1.379-11 1.920-12
 CH3O            5.552-12 4.082-12 5.709-13 5.310-14
 CH4             1.6491-3 1.6655-3 4.0775-3 1.0420-2
 CH3OH           1.0222-8 9.0253-9 7.8694-9 6.5027-9
 *CO             5.0279-1 5.0271-1 5.0118-1 4.9739-1
 *CO2            3.5509-3 3.6373-3 5.2002-3 9.0727-3
 COOH            6.367-10 5.096-10 1.071-10 1.846-11
 C2H             3.413-13 2.124-13 5.232-15 4.754-17
 C2H2,acetylene  1.9458-6 1.6386-6 7.1584-7 2.0554-7
 C2H2,vinylidene 2.191-11 1.524-11 1.248-12 4.729-14
 CH2CO,ketene    4.0644-7 3.5087-7 2.1979-7 1.0988-7
 O(CH)2O         1.052-12 8.172-13 2.363-13 5.311-14
 C2H3,vinyl      2.242-10 1.666-10 3.098-11 3.144-12
 CH3CO,acetyl    1.540-10 1.204-10 4.041-11 9.537-12
 C2H4            1.2448-6 1.1367-6 1.6175-6 1.8984-6
 C2H4O,ethylen-o 5.066-14 3.930-14 1.564-14 4.513-15
 CH3CHO,ethanal  2.5679-9 2.2506-9 2.5902-9 2.6661-9
 CH3COOH         1.118-11 9.798-12 1.317-11 1.877-11
 OHCH2COOH       2.293-16 1.772-16 9.226-17 4.787-17
 C2H5            2.360-10 1.901-10 1.148-10 4.767-11
 C2H6            3.5140-8 3.3182-8 1.0181-7 2.9843-7
 C2H5OH          1.662-12 1.399-12 1.819-12 2.151-12
 CH3OCH3         7.203-15 5.756-15 4.762-15 3.263-15
 C2O             2.316-12 1.556-12 6.814-14 1.404-15
 C3H3,1-propynl  4.296-15 2.819-15 2.480-16 9.058-18
 C3H3,2-propynl  8.193-11 6.042-11 1.473-11 1.847-12
 C3H4,allene     2.478-10 2.010-10 1.431-10 6.499-11
 C3H4,propyne    6.645-10 5.430-10 4.120-10 2.017-10
 C3H4,cyclo-     3.966-13 2.939-13 9.527-14 1.679-14
 C3H5,allyl      9.845-12 7.747-12 5.383-12 2.375-12
 C3H6,propylene  3.042-10 2.653-10 5.717-10 9.740-10
 C3H6,cyclo-     7.147-13 6.005-13 9.381-13 1.092-12
 C3H6O,acetone   3.004-13 2.569-13 5.386-13 1.004-12
 C3H6O,propanal  1.276-13 1.049-13 1.559-13 1.929-13
 C3H7,n-propyl   1.319-14 9.975-15 7.874-15 3.982-15
 C3H7,i-propyl   1.240-14 9.505-15 8.388-15 4.836-15
 C3H8            2.032-12 1.806-12 7.411-12 2.720-11
 C3H8O,1propanol 8.662-17 6.879-17 1.220-16 1.845-16
 C3H8O,2propanol 9.357-17 7.531-17 1.502-16 2.626-16
 C3O2            1.052-10 8.327-11 2.491-11 5.227-12
 C4H2,butadiyne  3.052-12 2.159-12 4.060-13 3.340-14
 C4H6,butadiene  7.762-13 6.280-13 9.949-13 1.053-12
 C4H6,1butyne    4.155-14 3.194-14 3.221-14 1.960-14
 C4H6,2butyne    4.282-14 3.377-14 4.253-14 3.372-14
 C4H6,cyclo-     1.112-15 8.643-16 9.599-16 6.602-16
 C4H8,1-butene   1.634-14 1.342-14 3.882-14 8.313-14
 C4H8,cis2-buten 7.385-15 6.137-15 1.966-14 4.745-14
 C4H8,tr2-butene 8.292-15 6.892-15 2.211-14 5.361-14
 C4H8,isobutene  9.657-15 8.074-15 2.725-14 7.027-14
 C4H10,n-butane  1.200-16 1.003-16 5.450-16 2.479-15
 C4H10,isobutane 4.217-17 3.556-17 2.088-16 1.043-15
 C5H6,1,3cyclo-  4.069-15 3.336-15 8.318-15 1.348-14
 C5H8,cyclo-     1.642-17 1.342-17 5.231-17 1.440-16
 C6H6            9.278-15 8.314-15 6.336-14 3.493-13
 C7H8            3.286-18 2.815-18 3.281-17 2.656-16
 *H              1.7075-5 1.4257-5 2.3256-6 2.6408-7
 HCO             1.6039-7 1.2895-7 2.4321-8 3.2362-9
 HCCO            3.315-11 2.378-11 2.334-12 1.261-13
 *H2             4.8074-1 4.8080-1 4.7745-1 4.6840-1
 HCHO,formaldehy 2.2887-6 2.0452-6 1.2317-6 6.6027-7
 HCOOH           5.5956-8 5.0156-8 3.6176-8 2.7716-8
 H2O             1.1244-2 1.1173-2 1.2084-2 1.4720-2
 H2O2            2.089-15 1.409-15 6.018-17 1.706-18
 *O              5.510-13 3.604-13 6.355-15 5.619-17
 *OH             2.232 -8 1.737 -8 1.758 -9 1.253-10
 *O2             5.811-15 3.792-15 7.552-17 8.675-19

  * THERMODYNAMIC PROPERTIES FITTED TO 20000.K