

         NASA-GLENN CHEMICAL EQUILIBRIUM PROGRAM CEA2, FEBRUARY 5, 2004
                   BY  BONNIE MCBRIDE AND SANFORD GORDON
      REFS: NASA RP-1311, PART I, 1994 AND NASA RP-1311, PART II, 1996

 *******************************************************************************

  
 ### CEA analysis performed on Thu 25-Aug-2022 04:32:26
  
 # Problem Type: "Rocket" (Finite Area Combustor)
  
 prob case=test___________7178 ro equilibrium    fac
  
 !Contraction Ratio:
 ac/at=2
  
 # Pressure (1 value):
 p,bar= 101.325
 # Supersonic Area Ratio (1 value):
 supar= 3
  
 # Equivalence based on Fuel/Oxid. wt ratio (Eq 9.19*) (26 values):
 phi= 0.5, 0.6, 0.7, 0.8, 0.9, 1, 1.1, 1.2, 1.3, 1.4, 1.5, 1.6, 1.7, 1.8, 1.9, 2,
  2.1, 2.2, 2.3, 2.4, 2.5, 2.6, 2.7, 2.8, 2.9, 3
  
 # You selected the following fuels and oxidizers:
 reac
 fuel RP-1             mole=100.0000
 oxid O2(L)            mole=100.0000
  
 # You selected these options for output:
 # short version of output
 output short
 # Proportions of any products will be expressed as Mole Fractions.
 # Heat will be expressed as siunits
 output siunits
 # Trace variable:
 output trace=1e-16
  
 # Input prepared by this script:/var/www/sites/cearun.grc.nasa.gov/cgi-bin/CEARU
 N/prepareInputFile.cgi
  
 ### IMPORTANT:  The following line is the end of your CEA input file!
 end

              THEORETICAL ROCKET PERFORMANCE ASSUMING EQUILIBRIUM

            COMPOSITION DURING EXPANSION FROM FINITE AREA COMBUSTOR

 Pin =  1469.6 PSIA
 Ac/At =  2.0000      Pinj/Pinf =  1.051859
 CASE = test___________

             REACTANT                       MOLES         ENERGY      TEMP
                                                         KJ/KG-MOL      K
 FUEL        RP-1                       100.0000000    -24717.700    298.150
 OXIDANT     O2(L)                      100.0000000    -12979.000     90.170

 O/F=    6.81133  %FUEL= 12.801913  R,EQ.RATIO= 0.500000  PHI,EQ.RATIO= 0.500000

                 INJECTOR  COMB END  THROAT     EXIT
 Pinj/P            1.0000   1.1125   1.8246   14.684
 P, BAR            101.33   91.077   55.533   6.9002
 T, K             3295.76  3272.20  3107.60  2445.28
 RHO, KG/CU M    1.1148e1 1.0099e1 6.5418 0 1.0614 0
 H, KJ/KG         -580.09  -630.83 -1063.78 -2621.78
 U, KJ/KG        -1489.02 -1532.69 -1912.67 -3271.92
 G, KJ/KG        -30254.7 -30138.9 -29087.5 -24672.9
 S, KJ/(KG)(K)     9.0039   9.0178   9.0178   9.0178

 M, (1/n)          30.148   30.167   30.437   31.272
 (dLV/dLP)t      -1.01774 -1.01750 -1.01403 -1.00309
 (dLV/dLT)p        1.3517   1.3497   1.2969   1.0858
 Cp, KJ/(KG)(K)    3.5900   3.5904   3.3661   2.2190
 GAMMAs            1.1398   1.1394   1.1396   1.1603
 SON VEL,M/SEC     1017.8   1013.7    983.5    868.5
 MACH NUMBER        0.000    0.314    1.000    2.327

 PERFORMANCE PARAMETERS

 Ae/At                      2.0000   1.0000   3.0000
 CSTAR, M/SEC               1497.2   1497.2   1497.2
 CF                         0.2128   0.6569   1.3497
 Ivac, M/SEC                3149.6   1846.6   2342.5
 Isp, M/SEC                  318.6    983.5   2020.7

 MOLE FRACTIONS

 *C              2.133-12 1.775-12 3.440-13 2.577-17
 *CH             3.937-13 3.192-13 5.513-14 2.501-18
 CH2             3.429-13 2.774-13 5.102-14 3.583-18
 CH3             2.718-13 2.211-13 4.586-14 6.976-18
 CH2OH           1.066-12 8.595-13 1.937-13 6.019-17
 CH3O            3.018-13 2.401-13 4.904-14 9.324-18
 CH4             3.442-14 2.784-14 6.019-15 1.388-18
 CH3OH           3.282-14 2.615-14 5.873-15 2.072-18
 *CO             3.3360-2 3.2845-2 2.5642-2 4.5113-3
 *CO2            2.4279-1 2.4348-1 2.5315-1 2.8194-1
 COOH            4.6432-6 4.1906-6 2.1606-6 6.1630-8
 CH2CO,ketene    1.111-14 8.627-15 1.382-15 5.724-20
 O(CH)2O         2.173-15 1.666-15 2.817-16 2.089-20
 HO(CO)2OH       1.535-13 1.208-13 3.357-14 6.523-17
 C2O             3.277-13 2.614-13 4.355-14 1.771-18
 C3O2            4.598-16 3.469-16 4.505-17 5.901-22
 *H              2.2889-3 2.2604-3 1.6611-3 2.0065-4
 HCO             4.469 -7 3.986 -7 1.621 -7 9.571-10
 HCCO            1.468-14 1.139-14 1.676-15 3.872-20
 HO2             5.6402-4 5.3097-4 3.6894-4 5.7481-5
 *H2             4.0528-3 4.0101-3 3.2359-3 7.1627-4
 HCHO,formaldehy 5.713 -9 4.997 -9 1.905 -9 9.077-12
 HCOOH           3.0211-7 2.6770-7 1.3055-7 3.1489-9
 H2O             2.3464-1 2.3528-1 2.4329-1 2.7032-1
 H2O2            3.9466-5 3.6434-5 2.3717-5 2.9115-6
 *O              1.8045-2 1.7798-2 1.3889-2 2.7226-3
 *OH             5.8174-2 5.7387-2 4.8536-2 1.6241-2
 *O2             4.0604-1 4.0636-1 4.1020-1 4.2329-1
 O3              6.5704-6 5.9492-6 3.3425-6 2.2372-7

  * THERMODYNAMIC PROPERTIES FITTED TO 20000.K

              THEORETICAL ROCKET PERFORMANCE ASSUMING EQUILIBRIUM

            COMPOSITION DURING EXPANSION FROM FINITE AREA COMBUSTOR

 Pin =  1469.6 PSIA
 Ac/At =  2.0000      Pinj/Pinf =  1.051609
 CASE = test___________

             REACTANT                       MOLES         ENERGY      TEMP
                                                         KJ/KG-MOL      K
 FUEL        RP-1                       100.0000000    -24717.700    298.150
 OXIDANT     O2(L)                      100.0000000    -12979.000     90.170

 O/F=    5.67611  %FUEL= 14.978782  R,EQ.RATIO= 0.600000  PHI,EQ.RATIO= 0.600000

                 INJECTOR  COMB END  THROAT     EXIT
 Pinj/P            1.0000   1.1119   1.8183   14.240
 P, BAR            101.33   91.124   55.724   7.1153
 T, K             3460.88  3436.84  3280.29  2687.02
 RHO, KG/CU M    1.0300e1 9.3347 0 6.0448 0 9.7834-1
 H, KJ/KG         -609.76  -664.40 -1130.98 -2820.62
 U, KJ/KG        -1593.46 -1640.59 -2052.84 -3547.90
 G, KJ/KG        -32987.4 -32866.3 -31866.1 -27997.0
 S, KJ/(KG)(K)     9.3553   9.3696   9.3696   9.3696

 M, (1/n)          29.252   29.273   29.586   30.719
 (dLV/dLP)t      -1.02806 -1.02784 -1.02408 -1.00955
 (dLV/dLT)p        1.5257   1.5253   1.4781   1.2360
 Cp, KJ/(KG)(K)    4.5386   4.5534   4.3929   3.2524
 GAMMAs            1.1334   1.1329   1.1308   1.1333
 SON VEL,M/SEC     1055.9   1051.6   1021.0    907.9
 MACH NUMBER        0.000    0.314    1.000    2.316

 PERFORMANCE PARAMETERS

 Ae/At                      2.0000   1.0000   3.0000
 CSTAR, M/SEC               1561.2   1561.2   1561.2
 CF                         0.2117   0.6540   1.3469
 Ivac, M/SEC                3283.5   1923.9   2448.7
 Isp, M/SEC                  330.6   1021.0   2102.8

 MOLE FRACTIONS

 *C              1.966-11 1.672-11 4.450-12 4.915-15
 *CH             4.071-12 3.374-12 8.022-13 5.470-16
 CH2             3.387-12 2.797-12 6.931-13 6.068-16
 CH3             2.442-12 2.023-12 5.478-13 7.903-16
 CH2OH           6.306-12 5.162-12 1.451-12 2.917-15
 CH3O            1.954-12 1.579-12 4.073-13 5.524-16
 CH4             3.033-13 2.493-13 6.865-14 1.209-16
 CH3OH           1.974-13 1.596-13 4.405-14 8.793-17
 CH3OOH          1.374-16 1.034-16 1.977-17 7.811-21
 *CO             6.2660-2 6.2051-2 5.2802-2 1.8824-2
 *CO2            2.5084-1 2.5166-1 2.6428-1 3.1040-1
 COOH            9.0864-6 8.2548-6 4.6859-6 2.9611-7
 C2H             2.266-16 1.723-16 2.316-17 9.338-22
 C2H2,acetylene  1.211-15 9.447-16 1.621-16 2.290-20
 CH2CO,ketene    1.205-13 9.552-14 2.062-14 1.030-17
 O(CH)2O         1.593-14 1.243-14 2.717-15 1.694-18
 HO(CO)2OH       3.645-13 2.892-13 9.017-14 4.415-16
 C2O             3.351-12 2.732-12 6.271-13 3.725-16
 C3O2            5.696-15 4.397-15 8.000-16 1.704-19
 *H              4.7503-3 4.7220-3 3.8241-3 1.0618-3
 HCO             1.5227-6 1.3736-6 6.5867-7 1.5529-8
 HCCO            1.697-13 1.347-13 2.741-14 9.613-18
 HO2             6.1954-4 5.8478-4 4.2163-4 9.1152-5
 *H2             7.8213-3 7.7754-3 6.7351-3 2.7330-3
 HCHO,formaldehy 2.088 -8 1.847 -8 8.259 -9 1.493-10
 HCOOH           6.2936-7 5.6106-7 2.9927-7 1.5029-8
 H2O             2.5738-1 2.5807-1 2.6727-1 3.0149-1
 H2O2            4.6488-5 4.3017-5 2.8935-5 4.7430-6
 *O              2.4884-2 2.4659-2 2.0604-2 7.3073-3
 *OH             7.5461-2 7.4666-2 6.5993-2 3.2385-2
 *O2             3.1552-1 3.1574-1 3.1803-1 3.2570-1
 O3              6.1881-6 5.6156-6 3.2747-6 3.0834-7

  * THERMODYNAMIC PROPERTIES FITTED TO 20000.K

              THEORETICAL ROCKET PERFORMANCE ASSUMING EQUILIBRIUM

            COMPOSITION DURING EXPANSION FROM FINITE AREA COMBUSTOR

 Pin =  1469.6 PSIA
 Ac/At =  2.0000      Pinj/Pinf =  1.051503
 CASE = test___________

             REACTANT                       MOLES         ENERGY      TEMP
                                                         KJ/KG-MOL      K
 FUEL        RP-1                       100.0000000    -24717.700    298.150
 OXIDANT     O2(L)                      100.0000000    -12979.000     90.170

 O/F=    4.86524  %FUEL= 17.049608  R,EQ.RATIO= 0.700000  PHI,EQ.RATIO= 0.700000

                 INJECTOR  COMB END  THROAT     EXIT
 Pinj/P            1.0000   1.1117   1.8157   14.045
 P, BAR            101.33   91.144   55.806   7.2143
 T, K             3574.28  3549.62  3396.21  2837.45
 RHO, KG/CU M    9.6673 0 8.7627 0 5.6737 0 9.1741-1
 H, KJ/KG         -637.99  -696.08 -1192.28 -2993.62
 U, KJ/KG        -1686.10 -1736.22 -2175.86 -3780.00
 G, KJ/KG        -35214.3 -35086.2 -34096.1 -30483.9
 S, KJ/(KG)(K)     9.6737   9.6884   9.6884   9.6884

 M, (1/n)          28.354   28.375   28.709   30.001
 (dLV/dLP)t      -1.03736 -1.03717 -1.03356 -1.01826
 (dLV/dLT)p        1.6740   1.6754   1.6396   1.4223
 Cp, KJ/(KG)(K)    5.3682   5.3971   5.3204   4.4551
 GAMMAs            1.1308   1.1302   1.1271   1.1206
 SON VEL,M/SEC     1088.7   1084.2   1052.9    938.7
 MACH NUMBER        0.000    0.314    1.000    2.312

 PERFORMANCE PARAMETERS

 Ae/At                      2.0000  1.00000   3.0000
 CSTAR, M/SEC               1613.1   1613.1   1613.1
 CF                         0.2113   0.6527   1.3456
 Ivac, M/SEC                3392.3   1987.1   2532.8
 Isp, M/SEC                  340.9   1052.9   2170.5

 MOLE FRACTIONS

 *C              8.754-11 7.528-11 2.363-11 9.520-14
 *CH             2.020-11 1.692-11 4.756-12 1.199-14
 CH2             1.690-11 1.410-11 4.089-12 1.217-14
 CH3             1.189-11 9.938-12 3.102-12 1.344-14
 CH2OH           2.226-11 1.836-11 5.807-12 2.901-14
 CH3O            7.311-12 5.955-12 1.738-12 6.141-15
 CH4             1.516-12 1.256-12 3.938-13 1.892-15
 CH3OH           7.304-13 5.944-13 1.833-13 8.585-16
 CH3OOH          4.820-16 3.656-16 7.874-17 7.881-20
 *CO             9.6256-2 9.5604-2 8.5287-2 4.3241-2
 *CO2            2.4962-1 2.5052-1 2.6493-1 3.2274-1
 COOH            1.4033-5 1.2791-5 7.6428-6 7.1293-7
 *C2             1.837-16 1.410-16 2.171-17 3.236-21
 C2H             2.201-15 1.698-15 2.872-16 6.844-20
 C2H2,acetylene  1.037-14 8.186-15 1.718-15 1.141-18
 CH2CO,ketene    6.587-13 5.273-13 1.337-13 2.282-16
 O(CH)2O         6.424-14 5.056-14 1.268-14 2.262-17
 HO(CO)2OH       6.436-13 5.125-13 1.703-13 1.330-15
 CH3CO,acetyl    4.356-16 3.265-16 5.709-17 1.877-20
 C2O             1.644-11 1.356-11 3.689-12 8.123-15
 C3O2            3.256-14 2.542-14 5.551-15 4.710-18
 *H              7.8144-3 7.7923-3 6.6338-3 2.7372-3
 HCO             3.5332-6 3.2052-6 1.6778-6 7.7700-8
 HCCO            9.321-13 7.478-13 1.810-13 2.407-16
 HO2             6.0854-4 5.7505-4 4.2134-4 1.0475-4
 *H2             1.2723-2 1.2677-2 1.1400-2 6.2042-3
 HCHO,formaldehy 5.250 -8 4.667 -8 2.274 -8 7.925-10
 HCOOH           1.0479-6 9.3697-7 5.2474-7 3.7975-8
 H2O             2.7671-1 2.7743-1 2.8755-1 3.2643-1
 H2O2            4.9433-5 4.5787-5 3.1256-5 5.8113-6
 *O              2.8831-2 2.8634-2 2.4726-2 1.1484-2
 *OH             8.7086-2 8.6288-2 7.7919-2 4.5547-2
 *O2             2.4028-1 2.4041-1 2.4110-1 2.4151-1
 O3              5.0587-6 4.5937-6 2.7146-6 2.9183-7

  * THERMODYNAMIC PROPERTIES FITTED TO 20000.K

              THEORETICAL ROCKET PERFORMANCE ASSUMING EQUILIBRIUM

            COMPOSITION DURING EXPANSION FROM FINITE AREA COMBUSTOR

 Pin =  1469.6 PSIA
 Ac/At =  2.0000      Pinj/Pinf =  1.051465
 CASE = test___________

             REACTANT                       MOLES         ENERGY      TEMP
                                                         KJ/KG-MOL      K
 FUEL        RP-1                       100.0000000    -24717.700    298.150
 OXIDANT     O2(L)                      100.0000000    -12979.000     90.170

 O/F=    4.25708  %FUEL= 19.021956  R,EQ.RATIO= 0.800000  PHI,EQ.RATIO= 0.800000

                 INJECTOR  COMB END  THROAT     EXIT
 Pinj/P            1.0000   1.1116   1.8146   13.959
 P, BAR            101.33   91.151   55.838   7.2586
 T, K             3653.91  3628.66  3475.93  2932.55
 RHO, KG/CU M    9.1671 0 8.3101 0 5.3807 0 8.6975-1
 H, KJ/KG         -664.87  -726.09 -1248.94 -3148.60
 U, KJ/KG        -1770.18 -1822.95 -2286.68 -3983.16
 G, KJ/KG        -37074.7 -36939.5 -35938.1 -32414.9
 S, KJ/(KG)(K)     9.9646   9.9798   9.9798   9.9798

 M, (1/n)          27.486   27.506   27.850   29.216
 (dLV/dLP)t      -1.04480 -1.04465 -1.04136 -1.02693
 (dLV/dLT)p        1.7870   1.7899   1.7664   1.5985
 Cp, KJ/(KG)(K)    6.0424   6.0835   6.0884   5.5962
 GAMMAs            1.1300   1.1294   1.1257   1.1148
 SON VEL,M/SEC     1117.6   1113.0   1080.8    964.6
 MACH NUMBER        0.000    0.314    1.000    2.311

 PERFORMANCE PARAMETERS

 Ae/At                      2.0000   1.0000   3.0000
 CSTAR, M/SEC               1657.1   1657.1   1657.1
 CF                         0.2112   0.6522   1.3450
 Ivac, M/SEC                3484.7   2041.0   2603.2
 Isp, M/SEC                  349.9   1080.8   2228.8

 MOLE FRACTIONS

 *C              2.583-10 2.234-10 7.707-11 6.151-13
 *CH             6.626-11 5.583-11 1.728-11 8.749-14
 CH2             5.755-11 4.826-11 1.536-11 8.860-14
 CH3             4.121-11 3.461-11 1.177-11 9.353-14
 CH2OH           5.877-11 4.866-11 1.652-11 1.357-13
 CH3O            2.008-11 1.642-11 5.158-12 3.069-14
 CH4             5.540-12 4.608-12 1.565-12 1.321-14
 CH3OH           2.059-12 1.682-12 5.552-13 4.182-15
 CH3OOH          1.238-15 9.427-16 2.178-16 3.595-19
 *CO             1.3199-1 1.3132-1 1.2063-1 7.4552-2
 *CO2            2.4207-1 2.4302-1 2.5839-1 3.2309-1
 COOH            1.8858-5 1.7218-5 1.0604-5 1.2199-6
 *C2             1.021-15 7.902-16 1.405-16 5.869-20
 C2H             1.233-14 9.585-15 1.858-15 1.164-18
 C2H2,acetylene  5.523-14 4.392-14 1.041-14 1.631-17
 C2H2,vinylidene 5.912-16 4.524-16 8.394-17 4.388-20
 CH2CO,ketene    2.457-12 1.978-12 5.535-13 1.874-15
 O(CH)2O         1.848-13 1.461-13 3.985-14 1.272-16
 HO(CO)2OH       9.522-13 7.599-13 2.626-13 2.664-15
 CH3CO,acetyl    2.048-15 1.544-15 3.024-16 2.193-19
 C2O             5.337-11 4.425-11 1.332-11 5.982-14
 C3O2            1.206-13 9.477-14 2.313-14 4.234-17
 *H              1.1258-2 1.1244-2 9.8433-3 4.9901-3
 HCO             6.5940-6 6.0001-6 3.3087-6 2.2106-7
 HCCO            3.372-12 2.721-12 7.310-13 2.017-15
 HO2             5.5401-4 5.2372-4 3.8572-4 1.0082-4
 *H2             1.8817-2 1.8771-2 1.7265-2 1.1039-2
 HCHO,formaldehy 1.0693-7 9.5340-8 4.8944-8 2.4533-9
 HCOOH           1.5317-6 1.3717-6 7.9168-7 7.0283-8
 H2O             2.9320-1 2.9394-1 3.0485-1 3.4729-1
 H2O2            4.9075-5 4.5470-5 3.1216-5 6.1009-6
 *O              3.0009-2 2.9834-2 2.6158-2 1.3730-2
 *OH             9.3501-2 9.2704-2 8.4589-2 5.3642-2
 *O2             1.7852-1 1.7857-1 1.7784-1 1.7156-1
 O3              3.7275-6 3.3845-6 1.9990-6 2.2035-7

  * THERMODYNAMIC PROPERTIES FITTED TO 20000.K

              THEORETICAL ROCKET PERFORMANCE ASSUMING EQUILIBRIUM

            COMPOSITION DURING EXPANSION FROM FINITE AREA COMBUSTOR

 Pin =  1469.6 PSIA
 Ac/At =  2.0000      Pinj/Pinf =  1.051464
 CASE = test___________

             REACTANT                       MOLES         ENERGY      TEMP
                                                         KJ/KG-MOL      K
 FUEL        RP-1                       100.0000000    -24717.700    298.150
 OXIDANT     O2(L)                      100.0000000    -12979.000     90.170

 O/F=    3.78407  %FUEL= 20.902688  R,EQ.RATIO= 0.900000  PHI,EQ.RATIO= 0.900000

                 INJECTOR  COMB END  THROAT     EXIT
 Pinj/P            1.0000   1.1116   1.8145   13.928
 P, BAR            101.33   91.151   55.843   7.2752
 T, K             3708.80  3683.02  3529.61  2991.10
 RHO, KG/CU M    8.7593 0 7.9408 0 5.1419 0 8.3121-1
 H, KJ/KG         -690.50  -754.56 -1301.63 -3289.02
 U, KJ/KG        -1847.27 -1902.44 -2387.66 -4164.27
 G, KJ/KG        -38638.6 -38496.5 -37471.5 -33940.5
 S, KJ/(KG)(K)    10.2319  10.2476  10.2476  10.2476

 M, (1/n)          26.658   26.678   27.022   28.414
 (dLV/dLP)t      -1.04988 -1.04975 -1.04677 -1.03373
 (dLV/dLT)p        1.8600   1.8640   1.8501   1.7312
 Cp, KJ/(KG)(K)    6.5369   6.5871   6.6560   6.5065
 GAMMAs            1.1302   1.1295   1.1254   1.1124
 SON VEL,M/SEC     1143.4   1138.6   1105.6    986.7
 MACH NUMBER        0.000    0.314    1.000    2.310

 PERFORMANCE PARAMETERS

 Ae/At                      2.0000   1.0000   3.0000
 CSTAR, M/SEC               1695.2   1695.2   1695.2
 CF                         0.2112   0.6522   1.3448
 Ivac, M/SEC                3564.8   2087.9   2663.6
 Isp, M/SEC                  357.9   1105.6   2279.7

 MOLE FRACTIONS

 *C              5.865-10 5.087-10 1.856-10 2.180-12
 *CH             1.675-10 1.415-10 4.649-11 3.524-13
 CH2             1.547-10 1.301-10 4.392-11 3.771-13
 CH3             1.163-10 9.793-11 3.529-11 4.104-13
 CH2OH           1.296-10 1.075-10 3.824-11 4.268-13
 CH3O            4.546-11 3.726-11 1.228-11 1.004-13
 CH4             1.681-11 1.402-11 5.038-12 6.157-14
 CH3OH           4.922-12 4.029-12 1.394-12 1.425-14
 CH3OOH          2.604-15 1.987-15 4.799-16 1.066-18
 *CO             1.6861-1 1.6794-1 1.5740-1 1.1034-1
 *CO2            2.3005-1 2.3102-1 2.4672-1 3.1462-1
 COOH            2.3092-5 2.1105-5 1.3244-5 1.7196-6
 *C2             3.905-15 3.037-15 5.909-16 4.523-19
 C2H             4.919-14 3.841-14 8.132-15 9.152-18
 C2H2,acetylene  2.212-13 1.766-13 4.550-14 1.227-16
 C2H2,vinylidene 2.569-15 1.975-15 4.008-16 3.790-19
 CH2CO,ketene    7.271-12 5.872-12 1.758-12 9.206-15
 O(CH)2O         4.306-13 3.414-13 9.854-14 4.528-16
 HO(CO)2OH       1.251-12 9.998-13 3.548-13 4.239-15
 C2H3,vinyl      1.434-16 1.071-16 1.920-17 1.089-20
 CH3CO,acetyl    7.332-15 5.550-15 1.173-15 1.402-18
 CH3CHO,ethanal  1.002-16 7.456-17 1.501-17 1.476-20
 CH3COOH         2.124-16 1.586-16 3.523-17 5.469-20
 OHCH2COOH       2.249-16 1.639-16 3.387-17 3.992-20
 C2O             1.337-10 1.112-10 3.573-11 2.462-13
 C3O2            3.417-13 2.696-13 7.094-14 2.106-16
 *H              1.4887-2 1.4880-2 1.3237-2 7.5112-3
 HCO             1.0726-5 9.7769-6 5.5745-6 4.6399-7
 HCCO            9.419-12 7.629-12 2.194-12 9.476-15
 HO2             4.7343-4 4.4752-4 3.2868-4 8.5319-5
 *H2             2.6271-2 2.6223-2 2.4491-2 1.7335-2
 HCHO,formaldehy 1.9129-7 1.7084-7 9.0858-8 5.7271-9
 HCOOH           2.0580-6 1.8449-6 1.0869-6 1.0980-7
 H2O             3.0710-1 3.0785-1 3.1949-1 3.6494-1
 H2O2            4.6089-5 4.2701-5 2.9298-5 5.7487-6
 *O              2.8854-2 2.8695-2 2.5262-2 1.3789-2
 *OH             9.5215-2 9.4423-2 8.6470-2 5.6511-2
 *O2             1.2846-1 1.2844-1 1.2655-1 1.1486-1
 O3              2.5005-6 2.2690-6 1.3243-6 1.3839-7

  * THERMODYNAMIC PROPERTIES FITTED TO 20000.K

              THEORETICAL ROCKET PERFORMANCE ASSUMING EQUILIBRIUM

            COMPOSITION DURING EXPANSION FROM FINITE AREA COMBUSTOR

 Pin =  1469.6 PSIA
 Ac/At =  2.0000      Pinj/Pinf =  1.051488
 CASE = test___________

             REACTANT                       MOLES         ENERGY      TEMP
                                                         KJ/KG-MOL      K
 FUEL        RP-1                       100.0000000    -24717.700    298.150
 OXIDANT     O2(L)                      100.0000000    -12979.000     90.170

 O/F=    3.40567  %FUEL= 22.698042  R,EQ.RATIO= 1.000000  PHI,EQ.RATIO= 1.000000

                 INJECTOR  COMB END  THROAT     EXIT
 Pinj/P            1.0000   1.1117   1.8149   13.931
 P, BAR            101.33   91.147   55.829   7.2733
 T, K             3743.32  3717.09  3561.97  3020.78
 RHO, KG/CU M    8.4219 0 7.6351 0 4.9445 0 7.9955-1
 H, KJ/KG         -714.97  -781.63 -1350.71 -3416.37
 U, KJ/KG        -1918.08 -1975.41 -2479.84 -4326.04
 G, KJ/KG        -39937.5 -39789.3 -38730.6 -35116.8
 S, KJ/(KG)(K)    10.4780  10.4941  10.4941  10.4941

 M, (1/n)          25.870   25.889   26.229   27.610
 (dLV/dLP)t      -1.05219 -1.05208 -1.04922 -1.03687
 (dLV/dLT)p        1.8887   1.8933   1.8836   1.7888
 Cp, KJ/(KG)(K)    6.8231   6.8783   6.9775   6.9982
 GAMMAs            1.1310   1.1303   1.1261   1.1121
 SON VEL,M/SEC     1166.5   1161.6   1127.6   1005.8
 MACH NUMBER        0.000    0.314    1.000    2.311

 PERFORMANCE PARAMETERS

 Ae/At                      2.0000   1.0000   3.0000
 CSTAR, M/SEC               1728.4   1728.4   1728.4
 CF                         0.2112   0.6524   1.3448
 Ivac, M/SEC                3634.7   2129.0   2715.8
 Isp, M/SEC                  365.1   1127.6   2324.4

 MOLE FRACTIONS

 *C              1.107 -9 9.611-10 3.622-10 5.255-12
 *CH             3.535-10 2.992-10 1.019-10 9.804-13
 CH2             3.551-10 2.991-10 1.051-10 1.169-12
 CH3             2.881-10 2.430-10 9.146-11 1.399-12
 CH2OH           2.535-10 2.106-10 7.744-11 1.066-12
 CH3O            9.040-11 7.418-11 2.528-11 2.554-13
 CH4             4.563-11 3.810-11 1.434-11 2.344-13
 CH3OH           1.060-11 8.687-12 3.118-12 4.014-14
 CH3OOH          4.763-15 3.638-15 9.046-16 2.417-18
 *CO             2.0537-1 2.0472-1 1.9478-1 1.4934-1
 *CO2            2.1472-1 2.1569-1 2.3117-1 2.9907-1
 COOH            2.6374-5 2.4117-5 1.5305-5 2.1252-6
 *C2             1.158-14 9.025-15 1.860-15 2.064-18
 C2H             1.567-13 1.227-13 2.761-14 4.571-17
 C2H2,acetylene  7.401-13 5.924-13 1.625-13 6.496-16
 C2H2,vinylidene 9.035-15 6.964-15 1.508-15 2.149-18
 CH2CO,ketene    1.856-11 1.502-11 4.733-12 3.412-14
 O(CH)2O         8.723-13 6.928-13 2.084-13 1.236-15
 HO(CO)2OH       1.505-12 1.204-12 4.353-13 5.798-15
 C2H3,vinyl      5.664-16 4.241-16 8.150-17 7.160-20
 CH3CO,acetyl    2.204-14 1.672-14 3.743-15 6.410-18
 C2H4            1.058-16 7.925-17 1.625-17 1.942-20
 CH3CHO,ethanal  3.328-16 2.483-16 5.316-17 7.670-20
 CH3COOH         5.442-16 4.071-16 9.515-17 2.015-19
 OHCH2COOH       4.610-16 3.364-16 7.239-17 1.093-19
 C2O             2.809-10 2.342-10 7.856-11 7.119-13
 C3O2            8.117-13 6.420-13 1.785-13 7.453-16
 *H              1.8509-2 1.8505-2 1.6599-2 9.9694-3
 HCO             1.5872-5 1.4481-5 8.4435-6 8.0831-7
 HCCO            2.216-11 1.799-11 5.428-12 3.170-14
 HO2             3.8009-4 3.5910-4 2.6087-4 6.3511-5
 *H2             3.5368-2 3.5316-2 3.3375-2 2.5461-2
 HCHO,formaldehy 3.1428-7 2.8099-7 1.5345-7 1.1395-8
 HCOOH           2.6062-6 2.3378-6 1.3985-6 1.5472-7
 H2O             3.1843-1 3.1920-1 3.3151-1 3.7956-1
 H2O2            4.1065-5 3.8032-5 2.5921-5 4.8898-6
 *O              2.5880-2 2.5731-2 2.2524-2 1.1940-2
 *OH             9.2649-2 9.1866-2 8.3954-2 5.4296-2
 *O2             8.8608-2 8.8539-2 8.5779-2 7.0298-2
 O3              1.5186-6 1.3763-6 7.8348-7 7.0863-8

  * THERMODYNAMIC PROPERTIES FITTED TO 20000.K

              THEORETICAL ROCKET PERFORMANCE ASSUMING EQUILIBRIUM

            COMPOSITION DURING EXPANSION FROM FINITE AREA COMBUSTOR

 Pin =  1469.6 PSIA
 Ac/At =  2.0000      Pinj/Pinf =  1.051537
 CASE = test___________

             REACTANT                       MOLES         ENERGY      TEMP
                                                         KJ/KG-MOL      K
 FUEL        RP-1                       100.0000000    -24717.700    298.150
 OXIDANT     O2(L)                      100.0000000    -12979.000     90.170

 O/F=    3.09606  %FUEL= 24.413703  R,EQ.RATIO= 1.100000  PHI,EQ.RATIO= 1.100000

                 INJECTOR  COMB END  THROAT     EXIT
 Pinj/P            1.0000   1.1118   1.8160   13.972
 P, BAR            101.33   91.138   55.797   7.2519
 T, K             3758.96  3732.35  3574.40  3021.64
 RHO, KG/CU M    8.1425 0 7.3816 0 4.7811 0 7.7357-1
 H, KJ/KG         -738.36  -807.36 -1396.32 -3530.94
 U, KJ/KG        -1982.75 -2042.02 -2563.37 -4468.40
 G, KJ/KG        -40977.2 -40823.5 -39718.9 -35927.2
 S, KJ/(KG)(K)    10.7048  10.7214  10.7214  10.7214

 M, (1/n)          25.116   25.135   25.465   26.800
 (dLV/dLP)t      -1.05136 -1.05124 -1.04814 -1.03439
 (dLV/dLT)p        1.8684   1.8727   1.8588   1.7336
 Cp, KJ/(KG)(K)    6.8633   6.9179   6.9943   6.8145
 GAMMAs            1.1325   1.1318   1.1276   1.1141
 SON VEL,M/SEC     1187.2   1182.1   1147.1   1022.0
 MACH NUMBER        0.000    0.314    1.000    2.312

 PERFORMANCE PARAMETERS

 Ae/At                      2.0000   1.0000   3.0000
 CSTAR, M/SEC               1756.9   1756.9   1756.9
 CF                         0.2115   0.6529   1.3451
 Ivac, M/SEC                3694.9   2164.5   2760.0
 Isp, M/SEC                  371.5   1147.1   2363.3

 MOLE FRACTIONS

 *C              1.806 -9 1.569 -9 5.990-10 9.352-12
 *CH             6.511-10 5.512-10 1.916-10 2.074-12
 CH2             7.288-10 6.143-10 2.221-10 2.936-12
 CH3             6.566-10 5.545-10 2.165-10 4.174-12
 CH2OH           4.561-10 3.792-10 1.431-10 2.304-12
 CH3O            1.638-10 1.345-10 4.699-11 5.526-13
 CH4             1.163-10 9.721-11 3.826-11 8.306-13
 CH3OH           2.136-11 1.752-11 6.505-12 1.031-13
 CH3OOH          7.828-15 5.981-15 1.515-15 4.513-18
 *CO             2.4180-1 2.4117-1 2.3226-1 1.9111-1
 *CO2            1.9687-1 1.9783-1 2.1254-1 2.7702-1
 COOH            2.8404-5 2.5978-5 1.6566-5 2.3486-6
 *C2             2.842-14 2.218-14 4.733-15 6.472-18
 C2H             4.266-13 3.344-13 7.858-14 1.701-16
 C2H2,acetylene  2.209-12 1.772-12 5.128-13 2.868-15
 C2H2,vinylidene 2.758-14 2.129-14 4.853-15 9.505-18
 CH2CO,ketene    4.306-11 3.491-11 1.150-11 1.090-13
 O(CH)2O         1.601-12 1.273-12 3.958-13 2.862-15
 HO(CO)2OH       1.684-12 1.348-12 4.937-13 7.037-15
 C2H3,vinyl      1.954-15 1.466-15 2.985-16 3.766-19
 CH3CO,acetyl    5.903-14 4.485-14 1.054-14 2.440-17
 C2H4            4.055-16 3.044-16 6.672-17 1.213-19
 CH3CHO,ethanal  1.001-15 7.478-16 1.693-16 3.469-19
 CH3COOH         1.278-15 9.574-16 2.343-16 6.598-19
 OHCH2COOH       8.593-16 6.277-16 1.398-16 2.594-19
 C2O             5.187-10 4.328-10 1.495-10 1.611-12
 C3O2            1.707-12 1.352-12 3.931-13 2.145-15
 *H              2.1896-2 2.1888-2 1.9674-2 1.1936-2
 HCO             2.1879-5 1.9971-5 1.1819-5 1.2338-6
 HCCO            4.619-11 3.753-11 1.174-11 8.528-14
 HO2             2.8454-4 2.6853-4 1.9084-4 3.9987-5
 *H2             4.6530-2 4.6474-2 4.4389-2 3.6200-2
 HCHO,formaldehy 4.8723-7 4.3594-7 2.4338-7 2.0673-8
 HCOOH           3.1547-6 2.8311-6 1.7143-6 2.0321-7
 H2O             3.2699-1 3.2777-1 3.4067-1 3.9070-1
 H2O2            3.4566-5 3.1987-5 2.1485-5 3.6593-6
 *O              2.1624-2 2.1481-2 1.8486-2 8.7208-3
 *OH             8.6164-2 8.5395-2 7.7375-2 4.7095-2
 *O2             5.7750-2 5.7639-2 5.4364-2 3.7170-2
 O3              8.2031-7 7.4180-7 4.0408-7 2.7259-8

  * THERMODYNAMIC PROPERTIES FITTED TO 20000.K

              THEORETICAL ROCKET PERFORMANCE ASSUMING EQUILIBRIUM

            COMPOSITION DURING EXPANSION FROM FINITE AREA COMBUSTOR

 Pin =  1469.6 PSIA
 Ac/At =  2.0000      Pinj/Pinf =  1.051621
 CASE = test___________

             REACTANT                       MOLES         ENERGY      TEMP
                                                         KJ/KG-MOL      K
 FUEL        RP-1                       100.0000000    -24717.700    298.150
 OXIDANT     O2(L)                      100.0000000    -12979.000     90.170

 O/F=    2.83806  %FUEL= 26.054862  R,EQ.RATIO= 1.200000  PHI,EQ.RATIO= 1.200000

                 INJECTOR  COMB END  THROAT     EXIT
 Pinj/P            1.0000   1.1120   1.8179   14.077
 P, BAR            101.33   91.122   55.738   7.1977
 T, K             3755.10  3728.16  3565.64  2985.67
 RHO, KG/CU M    7.9147 0 7.1745 0 4.6479 0 7.5269-1
 H, KJ/KG         -760.72  -831.83 -1438.46 -3632.16
 U, KJ/KG        -2040.93 -2101.90 -2637.67 -4588.43
 G, KJ/KG        -41741.9 -41582.9 -40413.1 -36267.4
 S, KJ/(KG)(K)    10.9135  10.9306  10.9306  10.9306

 M, (1/n)          24.388   24.406   24.722   25.960
 (dLV/dLP)t      -1.04710 -1.04694 -1.04314 -1.02523
 (dLV/dLT)p        1.7953   1.7984   1.7697   1.5436
 Cp, KJ/(KG)(K)    6.6185   6.6653   6.6484   5.7451
 GAMMAs            1.1350   1.1343   1.1303   1.1206
 SON VEL,M/SEC     1205.4   1200.2   1164.3   1035.2
 MACH NUMBER        0.000    0.314    1.000    2.315

 PERFORMANCE PARAMETERS

 Ae/At                      2.0000   1.0000   3.0000
 CSTAR, M/SEC               1780.6   1780.6   1780.6
 CF                         0.2118   0.6539   1.3459
 Ivac, M/SEC                3745.0   2194.3   2795.5
 Isp, M/SEC                  377.1   1164.2   2396.4

 MOLE FRACTIONS

 *C              2.595 -9 2.251 -9 8.538-10 1.208-11
 *CH             1.069 -9 9.046-10 3.158-10 3.364-12
 CH2             1.373 -9 1.157 -9 4.267-10 6.244-12
 CH3             1.420 -9 1.200 -9 4.858-10 1.181-11
 CH2OH           7.706-10 6.410-10 2.470-10 4.505-12
 CH3O            2.763-10 2.269-10 8.079-11 1.055-12
 CH4             2.881-10 2.413-10 9.986-11 3.070-12
 CH3OH           4.134-11 3.395-11 1.305-11 2.603-13
 CH3OOH          1.175-14 8.971-15 2.293-15 7.011-18
 *CO             2.7747-1 2.7689-1 2.6944-1 2.3561-1
 *CO2            1.7712-1 1.7804-1 1.9140-1 2.4833-1
 COOH            2.8933-5 2.6455-5 1.6827-5 2.2872-6
 *C2             5.983-14 4.666-14 1.010-14 1.438-17
 C2H             1.031-12 8.088-13 1.962-13 5.060-16
 C2H2,acetylene  6.149-12 4.939-12 1.506-12 1.187-14
 C2H2,vinylidene 7.635-14 5.900-14 1.406-14 3.621-17
 CH2CO,ketene    9.402-11 7.632-11 2.625-11 3.294-13
 O(CH)2O         2.730-12 2.173-12 6.946-13 5.937-15
 HO(CO)2OH       1.763-12 1.411-12 5.205-13 7.572-15
 C2H3,vinyl      6.184-15 4.645-15 9.990-16 1.791-18
 CH3CO,acetyl    1.465-13 1.115-13 2.744-14 8.535-17
 C2H4            1.473-15 1.108-15 2.607-16 7.671-19
 CH3CHO,ethanal  2.844-15 2.130-15 5.114-16 1.553-18
 CH3COOH         2.846-15 2.135-15 5.483-16 2.123-18
 OHCH2COOH       1.493-15 1.092-15 2.509-16 5.669-19
 C2O             8.634-10 7.205-10 2.531-10 2.947-12
 C3O2            3.287-12 2.608-12 7.876-13 5.428-15
 *H              2.4747-2 2.4725-2 2.2120-2 1.2745-2
 HCO             2.8448-5 2.5969-5 1.5497-5 1.6727-6
 HCCO            8.790-11 7.147-11 2.298-11 1.954-13
 HO2             1.9562-4 1.8424-4 1.2593-4 1.9315-5
 *H2             6.0349-2 6.0292-2 5.8230-2 5.1065-2
 HCHO,formaldehy 7.2500-7 6.4906-7 3.6980-7 3.5635-8
 HCOOH           3.6780-6 3.3017-6 2.0187-6 2.5214-7
 H2O             3.3232-1 3.3311-1 3.4639-1 3.9678-1
 H2O2            2.7197-5 2.5130-5 1.6429-5 2.2461-6
 *O              1.6663-2 1.6522-2 1.3753-2 4.9561-3
 *OH             7.6175-2 7.5419-2 6.7129-2 3.5246-2
 *O2             3.4875-2 3.4736-2 3.1363-2 1.5242-2
 O3              3.8248-7 3.4456-7 1.7421-7 6.5721-9

  * THERMODYNAMIC PROPERTIES FITTED TO 20000.K

              THEORETICAL ROCKET PERFORMANCE ASSUMING EQUILIBRIUM

            COMPOSITION DURING EXPANSION FROM FINITE AREA COMBUSTOR

 Pin =  1469.6 PSIA
 Ac/At =  2.0000      Pinj/Pinf =  1.051762
 CASE = test___________

             REACTANT                       MOLES         ENERGY      TEMP
                                                         KJ/KG-MOL      K
 FUEL        RP-1                       100.0000000    -24717.700    298.150
 OXIDANT     O2(L)                      100.0000000    -12979.000     90.170

 O/F=    2.61974  %FUEL= 27.626269  R,EQ.RATIO= 1.300000  PHI,EQ.RATIO= 1.300000

                 INJECTOR  COMB END  THROAT     EXIT
 Pinj/P            1.0000   1.1123   1.8213   14.311
 P, BAR            101.33   91.095   55.635   7.0801
 T, K             3729.38  3702.09  3532.11  2895.49
 RHO, KG/CU M    7.7369 0 7.0122 0 4.5439 0 7.3677-1
 H, KJ/KG         -782.14  -855.08 -1477.00 -3718.81
 U, KJ/KG        -2091.78 -2154.18 -2701.38 -4679.78
 G, KJ/KG        -42196.4 -42031.9 -40763.3 -35924.2
 S, KJ/(KG)(K)    11.1049  11.1226  11.1226  11.1226

 M, (1/n)          23.677   23.694   23.986   25.052
 (dLV/dLP)t      -1.03967 -1.03944 -1.03465 -1.01311
 (dLV/dLT)p        1.6727   1.6737   1.6223   1.2894
 Cp, KJ/(KG)(K)    6.0813   6.1130   5.9385   4.1413
 GAMMAs            1.1388   1.1381   1.1350   1.1365
 SON VEL,M/SEC     1221.2   1216.0   1178.9   1045.1
 MACH NUMBER        0.000    0.314    1.000    2.319

 PERFORMANCE PARAMETERS

 Ae/At                      2.0000   1.0000   3.0000
 CSTAR, M/SEC               1798.5   1798.5   1798.5
 CF                         0.2124   0.6555   1.3475
 Ivac, M/SEC                3783.2   2217.5   2820.0
 Isp, M/SEC                  382.0   1178.9   2423.5

 MOLE FRACTIONS

 *C              3.277 -9 2.835 -9 1.041 -9 9.900-12
 *CH             1.573 -9 1.328 -9 4.565-10 3.805-12
 CH2             2.402 -9 2.024 -9 7.535-10 1.091-11
 CH3             2.972 -9 2.514 -9 1.057 -9 3.317-11
 CH2OH           1.237 -9 1.029 -9 4.034-10 7.947-12
 CH3O            4.381-10 3.597-10 1.297-10 1.752-12
 CH4             7.134-10 5.988-10 2.639-10 1.324-11
 CH3OH           7.822-11 6.431-11 2.572-11 6.822-13
 CH3OOH          1.614-14 1.231-14 3.136-15 8.530-18
 *CO             3.1188-1 3.1138-1 3.0575-1 2.8192-1
 *CO2            1.5606-1 1.5691-1 1.6833-1 2.1328-1
 COOH            2.7790-5 2.5389-5 1.5939-5 1.8572-6
 *C2             1.093-13 8.505-14 1.824-14 2.044-17
 C2H             2.260-12 1.772-12 4.381-13 1.176-15
 C2H2,acetylene  1.645-11 1.324-11 4.271-12 4.982-14
 C2H2,vinylidene 1.968-13 1.522-13 3.777-14 1.224-16
 CH2CO,ketene    1.978-10 1.608-10 5.793-11 1.003-12
 O(CH)2O         4.387-12 3.493-12 1.144-12 1.116-14
 HO(CO)2OH       1.727-12 1.382-12 5.086-13 6.976-15
 C2H3,vinyl      1.852-14 1.393-14 3.169-15 8.242-18
 CH3CO,acetyl    3.458-13 2.634-13 6.798-14 2.904-16
 C2H4            5.271-15 3.979-15 1.018-15 5.663-18
 CH3CHO,ethanal  7.887-15 5.919-15 1.522-15 7.660-18
 CH3COOH         6.156-15 4.629-15 1.256-15 7.299-18
 OHCH2COOH       2.453-15 1.795-15 4.254-16 1.171-18
 C2O             1.310 -9 1.092 -9 3.849-10 4.169-12
 C3O2            5.922-12 4.704-12 1.470-12 1.244-14
 *H              2.6661-2 2.6607-2 2.3467-2 1.1484-2
 HCO             3.5044-5 3.1976-5 1.9090-5 1.9539-6
 HCCO            1.552-10 1.262-10 4.139-11 3.787-13
 HO2             1.2073-4 1.1329-4 7.2446-5 5.9587-6
 *H2             7.7578-2 7.7533-2 7.5840-2 7.2573-2
 HCHO,formaldehy 1.0461-6 9.3699-7 5.4456-7 5.9419-8
 HCOOH           4.1420-6 3.7189-6 2.2892-6 2.9386-7
 H2O             3.3362-1 3.3440-1 3.4765-1 3.9416-1
 H2O2            1.9666-5 1.8123-5 1.1302-5 9.8719-7
 (HCOOH)2        1.096-16 7.994-17 1.931-17 5.283-20
 *O              1.1628-2 1.1492-2 9.0201-3 1.8607-3
 *OH             6.3338-2 6.2593-2 5.3939-2 2.0693-2
 *O2             1.9027-2 1.8883-2 1.5877-2 4.0235-3
 O3              1.476 -7 1.321 -7 5.901 -8 7.158-10

  * THERMODYNAMIC PROPERTIES FITTED TO 20000.K

              THEORETICAL ROCKET PERFORMANCE ASSUMING EQUILIBRIUM

            COMPOSITION DURING EXPANSION FROM FINITE AREA COMBUSTOR

 Pin =  1469.6 PSIA
 Ac/At =  2.0000      Pinj/Pinf =  1.051993
 CASE = test___________

             REACTANT                       MOLES         ENERGY      TEMP
                                                         KJ/KG-MOL      K
 FUEL        RP-1                       100.0000000    -24717.700    298.150
 OXIDANT     O2(L)                      100.0000000    -12979.000     90.170

 O/F=    2.43262  %FUEL= 29.132277  R,EQ.RATIO= 1.400000  PHI,EQ.RATIO= 1.400000

                 INJECTOR  COMB END  THROAT     EXIT
 Pinj/P            1.0000   1.1128   1.8269   14.739
 P, BAR            101.33   91.052   55.462   6.8748
 T, K             3678.43  3650.68  3468.94  2739.64
 RHO, KG/CU M    7.6108 0 6.8960 0 4.4702 0 7.2629-1
 H, KJ/KG         -802.67  -877.15 -1511.73 -3787.13
 U, KJ/KG        -2134.00 -2197.51 -2752.44 -4733.69
 G, KJ/KG        -42293.7 -42122.1 -40703.4 -34739.3
 S, KJ/(KG)(K)    11.2795  11.2979  11.2979  11.2979

 M, (1/n)          22.973   22.989   23.247   24.065
 (dLV/dLP)t      -1.03033 -1.03002 -1.02454 -1.00510
 (dLV/dLT)p        1.5195   1.5182   1.4468   1.1166
 Cp, KJ/(KG)(K)    5.3271   5.3397   5.0028   2.9569
 GAMMAs            1.1449   1.1443   1.1430   1.1636
 SON VEL,M/SEC     1234.6   1229.2   1190.9   1049.5
 MACH NUMBER        0.000    0.314    1.000    2.328

 PERFORMANCE PARAMETERS

 Ae/At                      2.0000   1.0000   3.0000
 CSTAR, M/SEC               1809.3   1809.3   1809.3
 CF                         0.2133   0.6582   1.3503
 Ivac, M/SEC                3806.9   2232.7   2830.6
 Isp, M/SEC                  386.0   1190.9   2443.1

 MOLE FRACTIONS

 *C              3.587 -9 3.087 -9 1.055 -9 4.212-12
 *CH             2.055 -9 1.728 -9 5.673-10 2.539-12
 CH2             3.904 -9 3.283 -9 1.216 -9 1.412-11
 CH3             6.079 -9 5.148 -9 2.254 -9 8.971-11
 CH2OH           1.888 -9 1.570 -9 6.218-10 1.191-11
 CH3O            6.527-10 5.354-10 1.935-10 2.348-12
 CH4             1.796 -9 1.513 -9 7.225-10 6.892-11
 CH3OH           1.460-10 1.202-10 5.031-11 1.846-12
 CH3OOH          2.016-14 1.534-14 3.814-15 7.252-18
 *CO             3.4428-1 3.4389-1 3.4023-1 3.2561-1
 *CO2            1.3449-1 1.3523-1 1.4429-1 1.7600-1
 COOH            2.4988-5 2.2787-5 1.3903-5 1.1785-6
 *C2             1.721-13 1.334-13 2.730-14 1.521-17
 C2H             4.507-12 3.528-12 8.736-13 1.889-15
 C2H2,acetylene  4.303-11 3.470-11 1.191-11 2.086-13
 C2H2,vinylidene 4.779-13 3.696-13 9.490-14 3.398-16
 CH2CO,ketene    4.066-10 3.312-10 1.255-10 3.055-12
 O(CH)2O         6.681-12 5.321-12 1.774-12 1.828-14
 HO(CO)2OH       1.575-12 1.259-12 4.569-13 5.301-15
 C2H3,vinyl      5.331-14 4.016-14 9.686-15 3.502-17
 CH3CO,acetyl    7.855-13 5.993-13 1.624-13 9.331-16
 C2H4            1.908-14 1.446-14 4.106-15 5.018-17
 CH3CHO,ethanal  2.176-14 1.639-14 4.569-15 4.235-17
 CH3COOH         1.313-14 9.898-15 2.864-15 2.725-17
 OHCH2COOH       3.832-15 2.806-15 6.840-16 2.233-18
 C2O             1.810 -9 1.506 -9 5.217-10 4.099-12
 C3O2            1.010-11 8.027-12 2.583-12 2.513-14
 *H              2.7164-2 2.7056-2 2.3182-2 8.0592-3
 HCO             4.0803-5 3.7188-5 2.1948-5 1.8441-6
 HCCO            2.555-10 2.076-10 6.863-11 5.759-13
 HO2             6.5037-5 6.0648-5 3.4821-5 9.8561-7
 *H2             9.8997-2 9.8995-2 9.8230-2 1.0259-1
 HCHO,formaldehy 1.4694-6 1.3169-6 7.7983-7 9.3789-8
 HCOOH           4.5025-6 4.0421-6 2.4939-6 3.1513-7
 H2O             3.2981-1 3.3057-1 3.4296-1 3.7814-1
 H2O2            1.2790-5 1.1732-5 6.7690-6 2.7181-7
 (HCOOH)2        1.310-16 9.553-17 2.327-17 6.519-20
 *O              7.1750-3 7.0513-3 5.0256-3 3.9118-4
 *OH             4.8811-2 4.8083-2 3.9243-2 8.6242-3
 *O2             9.1161-3 8.9908-3 6.7581-3 5.8034-4
 O3              4.488 -8 3.971 -8 1.457 -8 2.619-11

  * THERMODYNAMIC PROPERTIES FITTED TO 20000.K

              THEORETICAL ROCKET PERFORMANCE ASSUMING EQUILIBRIUM

            COMPOSITION DURING EXPANSION FROM FINITE AREA COMBUSTOR

 Pin =  1469.6 PSIA
 Ac/At =  2.0000      Pinj/Pinf =  1.052337
 CASE = test___________

             REACTANT                       MOLES         ENERGY      TEMP
                                                         KJ/KG-MOL      K
 FUEL        RP-1                       100.0000000    -24717.700    298.150
 OXIDANT     O2(L)                      100.0000000    -12979.000     90.170

 O/F=    2.27044  %FUEL= 30.576886  R,EQ.RATIO= 1.500000  PHI,EQ.RATIO= 1.500000

                 INJECTOR  COMB END  THROAT     EXIT
 Pinj/P            1.0000   1.1136   1.8355   15.299
 P, BAR            101.33   90.988   55.203   6.6231
 T, K             3599.73  3571.31  3373.09  2542.83
 RHO, KG/CU M    7.5398 0 6.8289 0 4.4289 0 7.2237-1
 H, KJ/KG         -822.36  -898.05 -1542.17 -3828.67
 U, KJ/KG        -2166.22 -2230.44 -2788.60 -4745.52
 G, KJ/KG        -41994.9 -41813.5 -40186.8 -32961.1
 S, KJ/(KG)(K)    11.4377  11.4567  11.4567  11.4567

 M, (1/n)          22.272   22.286   22.501   23.060
 (dLV/dLP)t      -1.02118 -1.02084 -1.01558 -1.00186
 (dLV/dLT)p        1.3682   1.3652   1.2890   1.0440
 Cp, KJ/(KG)(K)    4.5230   4.5189   4.0990   2.4238
 GAMMAs            1.1538   1.1534   1.1550   1.1909
 SON VEL,M/SEC     1245.2   1239.7   1199.8   1044.9
 MACH NUMBER        0.000    0.314    1.000    2.347

 PERFORMANCE PARAMETERS

 Ae/At                      2.0000   1.0000   3.0000
 CSTAR, M/SEC               1811.9   1811.9   1811.9
 CF                         0.2147   0.6622   1.3533
 Ivac, M/SEC                3813.6   2238.7   2826.0
 Isp, M/SEC                  389.1   1199.8   2452.1

 MOLE FRACTIONS

 *C              3.325 -9 2.836 -9 8.560-10 9.327-13
 *CH             2.336 -9 1.951 -9 5.866-10 9.775-13
 CH2             5.821 -9 4.882 -9 1.756 -9 1.280-11
 CH3             1.212 -8 1.027 -8 4.671 -9 2.137-10
 CH2OH           2.722 -9 2.260 -9 8.928-10 1.447-11
 CH3O            9.055-10 7.412-10 2.638-10 2.439-12
 CH4             4.624 -9 3.915 -9 2.057 -9 3.866-10
 CH3OH           2.684-10 2.215-10 9.728-11 4.789-12
 CH3OOH          2.252-14 1.706-14 4.022-15 4.248-18
 *CO             3.7368-1 3.7339-1 3.7143-1 3.6070-1
 *CO2            1.1350-1 1.1411-1 1.2080-1 1.4380-1
 COOH            2.0868-5 1.8969-5 1.1030-5 6.0016-7
 *C2             2.291-13 1.761-13 3.268-14 5.722-18
 C2H             8.096-12 6.315-12 1.521-12 1.960-15
 C2H2,acetylene  1.104-10 8.921-11 3.261-11 7.816-13
 C2H2,vinylidene 1.087-12 8.403-13 2.198-13 7.027-16
 CH2CO,ketene    8.188-10 6.684-10 2.665-10 8.628-12
 O(CH)2O         9.619-12 7.656-12 2.572-12 2.525-14
 HO(CO)2OH       1.334-12 1.064-12 3.750-13 3.468-15
 C2H3,vinyl      1.474-13 1.112-13 2.825-14 1.218-16
 CH3CO,acetyl    1.717-12 1.312-12 3.719-13 2.596-15
 C2H4            7.037-14 5.364-14 1.715-14 4.578-16
 C2H4O,ethylen-o 1.096-16 8.023-17 1.925-17 8.061-20
 CH3CHO,ethanal  6.005-14 4.540-14 1.387-14 2.340-16
 CH3COOH         2.773-14 2.097-14 6.516-15 1.024-16
 OHCH2COOH       5.679-15 4.160-15 1.037-15 3.823-18
 C2H5            1.712-16 1.215-16 2.669-17 1.221-19
 C2O             2.257 -9 1.871 -9 6.194-10 2.751-12
 *C3             1.177-16 8.416-17 1.211-17 1.307-21
 C3O2            1.635-11 1.300-11 4.269-12 4.318-14
 *H              2.5881-2 2.5694-2 2.0958-2 4.3888-3
 HCO             4.4599-5 4.0554-5 2.3268-5 1.3907-6
 HCCO            3.899-10 3.163-10 1.034-10 6.576-13
 HO2             2.9828-5 2.7540-5 1.3497-5 9.5475-8
 *H2             1.2504-1 1.2512-1 1.2588-1 1.3887-1
 HCHO,formaldehy 2.0058-6 1.7981-6 1.0806-6 1.3508-7
 HCOOH           4.7114-6 4.2273-6 2.5975-6 3.1127-7
 H2O             3.1985-1 3.2052-1 3.3091-1 3.4950-1
 H2O2            7.3318-6 6.6757-6 3.4307-6 4.9829-8
 (HCOOH)2        1.463-16 1.065-16 2.591-17 7.145-20
 *O              3.8279-3 3.7282-3 2.3024-3 4.9317-5
 *OH             3.4362-2 3.3675-2 2.5318-2 2.6411-3
 *O2             3.7477-3 3.6602-3 2.3426-3 5.0716-5
 O3              1.031 -8 8.965 -9 2.473 -9 3.860-13

  * THERMODYNAMIC PROPERTIES FITTED TO 20000.K

              THEORETICAL ROCKET PERFORMANCE ASSUMING EQUILIBRIUM

            COMPOSITION DURING EXPANSION FROM FINITE AREA COMBUSTOR

 Pin =  1469.6 PSIA
 Ac/At =  2.0000      Pinj/Pinf =  1.052784
 CASE = test___________

             REACTANT                       MOLES         ENERGY      TEMP
                                                         KJ/KG-MOL      K
 FUEL        RP-1                       100.0000000    -24717.700    298.150
 OXIDANT     O2(L)                      100.0000000    -12979.000     90.170

 O/F=    2.12854  %FUEL= 31.963777  R,EQ.RATIO= 1.600000  PHI,EQ.RATIO= 1.600000

                 INJECTOR  COMB END  THROAT     EXIT
 Pinj/P            1.0000   1.1146   1.8464   15.865
 P, BAR            101.33   90.904   54.877   6.3868
 T, K             3494.02  3464.75  3247.59  2341.24
 RHO, KG/CU M    7.5256 0 6.8124 0 4.4217 0 7.2541-1
 H, KJ/KG         -841.26  -917.75 -1567.49 -3839.38
 U, KJ/KG        -2187.67 -2252.13 -2808.58 -4719.82
 G, KJ/KG        -41300.0 -41106.4 -39237.1 -30996.0
 S, KJ/(KG)(K)    11.5794  11.5993  11.5993  11.5993

 M, (1/n)          21.577   21.589   21.757   22.110
 (dLV/dLP)t      -1.01389 -1.01358 -1.00929 -1.00067
 (dLV/dLT)p        1.2459   1.2423   1.1761   1.0167
 Cp, KJ/(KG)(K)    3.8338   3.8201   3.4138   2.2134
 GAMMAs            1.1657   1.1655   1.1703   1.2121
 SON VEL,M/SEC     1252.8   1247.1   1205.2   1033.0
 MACH NUMBER        0.000    0.314    1.000    2.370

 PERFORMANCE PARAMETERS

 Ae/At                      2.0000   1.0000   3.0000
 CSTAR, M/SEC               1806.1   1806.1   1806.1
 CF                         0.2166   0.6673   1.3558
 Ivac, M/SEC                3802.8   2235.0   2808.3
 Isp, M/SEC                  391.1   1205.2   2448.7

 MOLE FRACTIONS

 *C              2.561 -9 2.155 -9 5.433-10 1.307-13
 *CH             2.269 -9 1.876 -9 4.925-10 2.517-13
 CH2             7.837 -9 6.538 -9 2.214 -9 8.681-12
 CH3             2.324 -8 1.972 -8 9.202 -9 4.380-10
 CH2OH           3.663 -9 3.034 -9 1.174 -9 1.470-11
 CH3O            1.155 -9 9.420-10 3.232-10 2.068-12
 CH4             1.2049-8 1.0264-8 5.9712-9 2.1179-9
 CH3OH           4.818-10 3.984-10 1.829-10 1.150-11
 CH3OOH          2.218-14 1.668-14 3.614-15 1.913-18
 *CO             3.9910-1 3.9889-1 3.9792-1 3.8615-1
 *CO2            9.4295-2 9.4786-2 9.9632-2 1.1950-1
 COOH            1.6139-5 1.4601-5 7.9500-6 2.6788-7
 *C2             2.523-13 1.916-13 3.041-14 1.299-18
 C2H             1.287-11 9.982-12 2.252-12 1.426-15
 C2H2,acetylene  2.744-10 2.224-10 8.574-11 2.515-12
 C2H2,vinylidene 2.280-12 1.759-12 4.571-13 1.103-15
 CH2CO,ketene    1.605 -9 1.313 -9 5.479-10 2.200-11
 O(CH)2O         1.302-11 1.035-11 3.457-12 3.049-14
 HO(CO)2OH       1.051-12 8.355-13 2.830-13 2.132-15
 C2H3,vinyl      3.847-13 2.904-13 7.641-14 3.386-16
 CH3CO,acetyl    3.573-12 2.732-12 8.004-13 6.180-15
 C2H4            2.611-13 2.003-13 7.227-14 3.843-15
 C2H4O,ethylen-o 2.647-16 1.941-16 4.899-17 2.557-19
 CH3CHO,ethanal  1.641-13 1.246-13 4.169-14 1.200-15
 CH3COOH         5.760-14 4.372-14 1.461-14 3.696-16
 OHCH2COOH       7.944-15 5.817-15 1.472-15 6.020-18
 C2H5            6.625-16 4.728-16 1.149-16 8.761-19
 C2O             2.517 -9 2.074 -9 6.355-10 1.397-12
 *C3             2.087-16 1.480-16 1.940-17 7.642-22
 C3H3,2-propynl  1.922-16 1.333-16 2.557-17 5.188-20
 C3O2            2.509-11 1.994-11 6.605-12 6.502-14
 *H              2.2838-2 2.2562-2 1.7141-2 1.9927-3
 HCO             4.5454-5 4.1181-5 2.2545-5 8.8976-7
 HCCO            5.464-10 4.416-10 1.395-10 5.971-13
 HO2             1.1531-5 1.0498-5 4.1991-6 6.7772-9
 *H2             1.5528-1 1.5548-1 1.5798-1 1.7732-1
 HCHO,formaldehy 2.6452-6 2.3713-6 1.4354-6 1.7819-7
 HCOOH           4.7366-6 4.2456-6 2.5823-6 2.9212-7
 H2O             3.0342-1 3.0393-1 3.1137-1 3.1436-1
 H2O2            3.6709-6 3.3076-6 1.4631-6 7.1929-9
 (HCOOH)2        1.522-16 1.107-16 2.665-17 7.386-20
 *O              1.7476-3 1.6805-3 8.6114-4 4.5554-6
 *OH             2.1932-2 2.1335-2 1.4398-2 6.6745-4
 *O2             1.3136-3 1.2656-3 6.6141-4 3.3580-6
 O3              1.768 -9 1.500 -9 2.885-10 3.434-15

  * THERMODYNAMIC PROPERTIES FITTED TO 20000.K

              THEORETICAL ROCKET PERFORMANCE ASSUMING EQUILIBRIUM

            COMPOSITION DURING EXPANSION FROM FINITE AREA COMBUSTOR

 Pin =  1469.6 PSIA
 Ac/At =  2.0000      Pinj/Pinf =  1.053285
 CASE = test___________

             REACTANT                       MOLES         ENERGY      TEMP
                                                         KJ/KG-MOL      K
 FUEL        RP-1                       100.0000000    -24717.700    298.150
 OXIDANT     O2(L)                      100.0000000    -12979.000     90.170

 O/F=    2.00333  %FUEL= 33.296340  R,EQ.RATIO= 1.700000  PHI,EQ.RATIO= 1.700000

                 INJECTOR  COMB END  THROAT     EXIT
 Pinj/P            1.0000   1.1158   1.8583   16.375
 P, BAR            101.33   90.811   54.527   6.1879
 T, K             3366.21  3336.09  3101.17  2152.24
 RHO, KG/CU M    7.5656 0 6.8450 0 4.4477 0 7.3458-1
 H, KJ/KG         -859.42  -936.22 -1587.07 -3823.30
 U, KJ/KG        -2198.71 -2262.91 -2813.04 -4665.68
 G, KJ/KG        -40261.5 -40054.5 -37950.8 -29060.0
 S, KJ/(KG)(K)    11.7051  11.7258  11.7258  11.7258

 M, (1/n)          20.898   20.908   21.032   21.243
 (dLV/dLP)t      -1.00884 -1.00858 -1.00540 -1.00024
 (dLV/dLT)p        1.1596   1.1563   1.1050   1.0062
 Cp, KJ/(KG)(K)    3.3234   3.3063   2.9610   2.1326
 GAMMAs            1.1794   1.1796   1.1871   1.2279
 SON VEL,M/SEC     1256.8   1251.0   1206.4   1017.0
 MACH NUMBER        0.000    0.313    1.000    2.394

 PERFORMANCE PARAMETERS

 Ae/At                      2.0000   1.0000   3.0000
 CSTAR, M/SEC               1792.9   1792.9   1792.9
 CF                         0.2186   0.6728   1.3579
 Ivac, M/SEC                3777.0   2222.6   2780.7
 Isp, M/SEC                  391.9   1206.4   2434.7

 MOLE FRACTIONS

 *C              1.631 -9 1.349 -9 2.715-10 1.345-14
 *CH             1.869 -9 1.524 -9 3.358-10 4.922-14
 CH2             9.417 -9 7.797 -9 2.416 -9 4.790-12
 CH3             4.225 -8 3.586 -8 1.693 -8 7.968-10
 CH2OH           4.563 -9 3.766 -9 1.403 -9 1.317-11
 CH3O            1.343 -9 1.090 -9 3.538-10 1.527-12
 CH4             3.1283-8 2.6833-8 1.7261-8 1.1198-8
 CH3OH           8.347-10 6.916-10 3.299-10 2.595-11
 CH3OOH          1.916-14 1.427-14 2.774-15 7.271-19
 *CO             4.2004-1 4.1988-1 4.1913-1 4.0427-1
 *CO2            7.7762-2 7.8164-2 8.1900-2 1.0182-1
 COOH            1.1614-5 1.0444-5 5.2666-6 1.1086-7
 *C2             2.278-13 1.701-13 2.197-14 2.088-19
 C2H             1.790-11 1.376-11 2.808-12 8.092-16
 C2H2,acetylene  6.518-10 5.292-10 2.121-10 7.173-12
 C2H2,vinylidene 4.339-12 3.335-12 8.379-13 1.413-15
 CH2CO,ketene    3.035 -9 2.487 -9 1.077 -9 5.194-11
 O(CH)2O         1.653-11 1.311-11 4.304-12 3.380-14
 HO(CO)2OH       7.785-13 6.165-13 2.003-13 1.296-15
 C2H3,vinyl      9.314-13 7.028-13 1.873-13 7.926-16
 CH3CO,acetyl    6.992-12 5.347-12 1.596-12 1.313-14
 C2H4            9.535-13 7.370-13 2.977-13 2.971-14
 C2H4O,ethylen-o 6.017-16 4.417-16 1.157-16 7.246-19
 CH3CHO,ethanal  4.371-13 3.338-13 1.216-13 5.770-15
 CH3COOH         1.167-13 8.897-14 3.192-14 1.299-15
 OHCH2COOH       1.047-14 7.662-15 1.956-15 9.089-18
 C2H5            2.447-15 1.755-15 4.647-16 5.507-18
 C2H6            3.286-16 2.380-16 8.479-17 1.119-17
 C2O             2.505 -9 2.046 -9 5.651-10 5.896-13
 *C3             3.113-16 2.180-16 2.485-17 3.192-22
 C3H3,2-propynl  7.160-16 4.979-16 1.013-16 2.585-19
 C3O2            3.650-11 2.898-11 9.575-12 9.022-14
 *H              1.8605-2 1.8259-2 1.2694-2 7.9864-4
 HCO             4.3118-5 3.8869-5 1.9999-5 5.0984-7
 HCCO            6.989-10 5.620-10 1.678-10 4.635-13
 HO2             3.793 -6 3.393 -6 1.076 -6 3.993-10
 *H2             1.8831-1 1.8863-1 1.9251-1 2.1536-1
 HCHO,formaldehy 3.3542-6 3.0055-6 1.8188-6 2.2078-7
 HCOOH           4.5829-6 4.1022-6 2.4623-6 2.6756-7
 H2O             2.8140-1 2.8172-1 2.8601-1 2.7760-1
 H2O2            1.615 -6 1.436 -6 5.351 -7 8.999-10
 (HCOOH)2        1.484-16 1.077-16 2.564-17 7.555-20
 *O              6.8707-4 6.5013-4 2.6834-4 3.4664-7
 *OH             1.2726-2 1.2264-2 7.2968-3 1.4934-4
 *O2             3.9753-4 3.7654-4 1.5667-4 1.8926-7
 O3              2.312-10 1.902-10 2.438-11 2.284-17

  * THERMODYNAMIC PROPERTIES FITTED TO 20000.K

              THEORETICAL ROCKET PERFORMANCE ASSUMING EQUILIBRIUM

            COMPOSITION DURING EXPANSION FROM FINITE AREA COMBUSTOR

 Pin =  1469.6 PSIA
 Ac/At =  2.0000      Pinj/Pinf =  1.053792
 CASE = test___________

             REACTANT                       MOLES         ENERGY      TEMP
                                                         KJ/KG-MOL      K
 FUEL        RP-1                       100.0000000    -24717.700    298.150
 OXIDANT     O2(L)                      100.0000000    -12979.000     90.170

 O/F=    1.89204  %FUEL= 34.577706  R,EQ.RATIO= 1.800000  PHI,EQ.RATIO= 1.800000

                 INJECTOR  COMB END  THROAT     EXIT
 Pinj/P            1.0000   1.1169   1.8700   16.817
 P, BAR            101.33   90.717   54.184   6.0251
 T, K             3223.28  3192.44  2943.52  1980.11
 RHO, KG/CU M    7.6547 0 6.9221 0 4.5035 0 7.4885-1
 H, KJ/KG         -876.89  -953.51 -1601.03 -3786.75
 U, KJ/KG        -2200.58 -2264.06 -2804.17 -4591.33
 G, KJ/KG        -38960.7 -38741.7 -36442.7 -27224.8
 S, KJ/(KG)(K)    11.8152  11.8368  11.8368  11.8368

 M, (1/n)          20.246   20.254   20.342   20.462
 (dLV/dLP)t      -1.00553 -1.00534 -1.00309 -1.00008
 (dLV/dLT)p        1.1023   1.0995   1.0618   1.0023
 Cp, KJ/(KG)(K)    2.9695   2.9524   2.6737   2.1059
 GAMMAs            1.1940   1.1944   1.2038   1.2403
 SON VEL,M/SEC     1257.2   1251.1   1203.4    999.0
 MACH NUMBER        0.000    0.313    1.000    2.415

 PERFORMANCE PARAMETERS

 Ae/At                      2.0000   1.0000   3.0000
 CSTAR, M/SEC               1774.1   1774.1   1774.1
 CF                         0.2207   0.6783   1.3598
 Ivac, M/SEC                3739.1   2203.2   2745.9
 Isp, M/SEC                  391.5   1203.4   2412.4

 MOLE FRACTIONS

 *C              8.674-10 7.023-10 1.093-10 1.092-15
 *CH             1.312 -9 1.052 -9 1.891-10 7.796-15
 CH2             1.009 -8 8.278 -9 2.299 -9 2.264-12
 CH3             7.2380-8 6.1386-8 2.8980-8 1.3325-9
 CH2OH           5.259 -9 4.321 -9 1.533 -9 1.078-11
 CH3O            1.428 -9 1.152 -9 3.492-10 1.021-12
 CH4             8.0122-8 6.9245-8 4.9174-8 5.8360-8
 CH3OH           1.390 -9 1.154 -9 5.695-10 5.639-11
 CH3OOH          1.461-14 1.077-14 1.851-15 2.445-19
 *CO             4.3672-1 4.3656-1 4.3555-1 4.1741-1
 *CO2            6.4132-2 6.4480-2 6.7688-2 8.8836-2
 COOH            7.8490-6 7.0090-6 3.2566-6 4.3455-8
 *C2             1.697-13 1.242-13 1.259-14 2.584-20
 C2H             2.177-11 1.655-11 2.978-12 3.826-16
 C2H2,acetylene  1.468 -9 1.194 -9 4.912-10 1.890-11
 C2H2,vinylidene 7.461-12 5.703-12 1.357-12 1.565-15
 CH2CO,ketene    5.518 -9 4.530 -9 2.021 -9 1.172-10
 O(CH)2O         1.975-11 1.562-11 5.011-12 3.559-14
 HO(CO)2OH       5.502-13 4.339-13 1.358-13 7.931-16
 C2H3,vinyl      2.074-12 1.563-12 4.146-13 1.648-15
 CH3CO,acetyl    1.283-11 9.805-12 2.953-12 2.598-14
 C2H4            3.383-12 2.635-12 1.183-12 2.195-13
 C2H4O,ethylen-o 1.280-15 9.411-16 2.533-16 1.916-18
 CH3CHO,ethanal  1.127-12 8.653-13 3.416-13 2.689-14
 CH3COOH         2.302-13 1.763-13 6.794-14 4.558-15
 OHCH2COOH       1.307-14 9.558-15 2.464-15 1.355-17
 C2H5            8.512-15 6.132-15 1.748-15 3.187-17
 C2H6            1.700-15 1.246-15 5.227-16 1.858-16
 C2H5OH          1.440-16 1.014-16 3.001-17 1.132-18
 C2O             2.237 -9 1.809 -9 4.423-10 2.176-13
 *C3             3.911-16 2.697-16 2.579-17 1.040-22
 C3H3,2-propynl  2.470-15 1.721-15 3.654-16 1.150-18
 C3H4,propyne    1.670-16 1.161-16 3.066-17 6.576-19
 C3O2            5.058-11 4.009-11 1.313-11 1.196-13
 *H              1.4033-2 1.3662-2 8.5851-3 2.9036-4
 HCO             3.8219-5 3.4241-5 1.6392-5 2.6925-7
 HCCO            8.181-10 6.536-10 1.817-10 3.222-13
 HO2             1.081 -6 9.473 -7 2.344 -7 2.027-11
 *H2             2.2233-1 2.2274-1 2.2736-1 2.5183-1
 HCHO,formaldehy 4.0891-6 3.6611-6 2.2045-6 2.6236-7
 HCOOH           4.2896-6 3.8341-6 2.2721-6 2.4254-7
 H2O             2.5561-1 2.5574-1 2.5734-1 2.4160-1
 H2O2            6.327 -7 5.542 -7 1.720 -7 1.005-10
 (HCOOH)2        1.371-16 9.934-17 2.351-17 7.828-20
 *O              2.3601-4 2.1913-4 7.1521-5 2.2593-8
 *OH             6.7706-3 6.4533-3 3.3487-3 3.0311-5
 *O2             1.0588-4 9.8348-5 3.2129-5 9.3609-9
 O3              2.389-11 1.899-11 1.583-12 1.203-19

  * THERMODYNAMIC PROPERTIES FITTED TO 20000.K

              THEORETICAL ROCKET PERFORMANCE ASSUMING EQUILIBRIUM

            COMPOSITION DURING EXPANSION FROM FINITE AREA COMBUSTOR

 Pin =  1469.6 PSIA
 Ac/At =  2.0000      Pinj/Pinf =  1.054282
 CASE = test___________

             REACTANT                       MOLES         ENERGY      TEMP
                                                         KJ/KG-MOL      K
 FUEL        RP-1                       100.0000000    -24717.700    298.150
 OXIDANT     O2(L)                      100.0000000    -12979.000     90.170

 O/F=    1.79246  %FUEL= 35.810771  R,EQ.RATIO= 1.900000  PHI,EQ.RATIO= 1.900000

                 INJECTOR  COMB END  THROAT     EXIT
 Pinj/P            1.0000   1.1181   1.8810   17.200
 P, BAR            101.33   90.626   53.866   5.8910
 T, K             3071.66  3040.35  2782.02  1824.29
 RHO, KG/CU M    7.7878 0 7.0392 0 4.5862 0 7.6744-1
 H, KJ/KG         -893.69  -969.69 -1609.84 -3735.21
 U, KJ/KG        -2194.77 -2257.14 -2784.37 -4502.82
 G, KJ/KG        -37478.1 -37249.1 -34806.8 -25503.9
 S, KJ/(KG)(K)    11.9103  11.9327  11.9327  11.9327

 M, (1/n)          19.629   19.635   19.694   19.760
 (dLV/dLP)t      -1.00340 -1.00325 -1.00172 -1.00003
 (dLV/dLT)p        1.0646   1.0624   1.0356   1.0008
 Cp, KJ/(KG)(K)    2.7275   2.7117   2.4921   2.1027
 GAMMAs            1.2086   1.2092   1.2195   1.2506
 SON VEL,M/SEC     1254.0   1247.7   1196.8    979.8
 MACH NUMBER        0.000    0.312    1.000    2.433

 PERFORMANCE PARAMETERS

 Ae/At                      2.0000   1.0000   3.0000
 CSTAR, M/SEC               1751.0   1751.0   1751.0
 CF                         0.2227   0.6835   1.3614
 Ivac, M/SEC                3692.2   2178.2   2705.9
 Isp, M/SEC                  389.9   1196.8   2383.9

 MOLE FRACTIONS

 *C              3.901-10 3.082-10 3.627-11 7.152-17
 *CH             7.937-10 6.239-10 8.987-11 1.026-15
 CH2             9.719 -9 7.883 -9 1.936 -9 9.407-13
 CH3             1.1718-7 9.9273-8 4.6595-8 2.1036-9
 CH2OH           5.645 -9 4.612 -9 1.550 -9 8.214-12
 CH3O            1.398 -9 1.119 -9 3.153-10 6.315-13
 CH4             2.0270-7 1.7663-7 1.3879-7 3.0790-7
 CH3OH           2.232 -9 1.857 -9 9.490-10 1.205-10
 CH3OOH          9.966-15 7.255-15 1.096-15 7.405-20
 *CO             4.4978-1 4.4961-1 4.4813-1 4.2722-1
 *CO2            5.3129-2 5.3449-2 5.6464-2 7.9081-2
 COOH            5.0235-6 4.4519-6 1.9017-6 1.6194-8
 *C2             1.059-13 7.565-14 5.874-15 2.550-21
 C2H             2.340-11 1.756-11 2.740-12 1.563-16
 C2H2,acetylene  3.149 -9 2.563 -9 1.077 -9 4.761-11
 C2H2,vinylidene 1.167-11 8.860-12 1.971-12 1.554-15
 CH2CO,ketene    9.697 -9 7.973 -9 3.660 -9 2.592-10
 O(CH)2O         2.241-11 1.767-11 5.533-12 3.627-14
 HO(CO)2OH       3.756-13 2.952-13 8.958-14 4.893-16
 C2H3,vinyl      4.272-12 3.212-12 8.409-13 3.168-15
 CH3CO,acetyl    2.221-11 1.697-11 5.140-12 4.932-14
 C2H4            1.168-11 9.169-12 4.568-12 1.614-12
 C2H4O,ethylen-o 2.569-15 1.890-15 5.216-16 4.893-18
 CH3CHO,ethanal  2.824-12 2.181-12 9.341-13 1.254-13
 CH3COOH         4.444-13 3.421-13 1.424-13 1.638-14
 OHCH2COOH       1.561-14 1.142-14 2.991-15 2.032-17
 C2H5            2.797-14 2.024-14 6.189-15 1.776-16
 C2H6            8.636-15 6.411-15 3.177-15 3.150-15
 C2H5OH          4.671-16 3.317-16 1.095-16 8.474-18
 C2O             1.814 -9 1.449 -9 3.101-10 7.180-14
 *C3             4.192-16 2.838-16 2.223-17 2.766-23
 C3H3,2-propynl  7.941-15 5.542-15 1.216-15 4.813-18
 C3H4,allene     3.563-16 2.489-16 7.092-17 2.472-18
 C3H4,propyne    7.532-16 5.277-16 1.546-16 6.358-18
 C3O2            6.736-11 5.330-11 1.727-11 1.551-13
 *H              9.8522-3 9.5032-3 5.3532-3 9.6657-5
 HCO             3.1855-5 2.8339-5 1.2547-5 1.3264-7
 HCCO            8.840-10 7.009-10 1.798-10 2.056-13
 HO2             2.705 -7 2.318 -7 4.429 -8 8.833-13
 *H2             2.5579-1 2.5623-1 2.6100-1 2.8622-1
 HCHO,formaldehy 4.8130-6 4.3052-6 2.5757-6 3.0317-7
 HCOOH           3.9083-6 3.4887-6 2.0465-6 2.1894-7
 H2O             2.2798-1 2.2795-1 2.2760-1 2.0738-1
 H2O2            2.234 -7 1.924 -7 4.938 -8 1.001-11
 (HCOOH)2        1.217-16 8.810-17 2.093-17 8.296-20
 *O              7.1675-5 6.5149-5 1.6594-5 1.2622-9
 *OH             3.3280-3 3.1330-3 1.4076-3 5.5883-6
 *O2             2.515 -5 2.286 -5 5.806 -6 4.031-10
 O3              2.004-12 1.533-12 8.182-14 4.952-22

  * THERMODYNAMIC PROPERTIES FITTED TO 20000.K

              THEORETICAL ROCKET PERFORMANCE ASSUMING EQUILIBRIUM

            COMPOSITION DURING EXPANSION FROM FINITE AREA COMBUSTOR

 Pin =  1469.6 PSIA
 Ac/At =  2.0000      Pinj/Pinf =  1.054739
 CASE = test___________

             REACTANT                       MOLES         ENERGY      TEMP
                                                         KJ/KG-MOL      K
 FUEL        RP-1                       100.0000000    -24717.700    298.150
 OXIDANT     O2(L)                      100.0000000    -12979.000     90.170

 O/F=    1.70283  %FUEL= 36.998214  R,EQ.RATIO= 2.000000  PHI,EQ.RATIO= 2.000000

                 INJECTOR  COMB END  THROAT     EXIT
 Pinj/P            1.0000   1.1191   1.8911   17.535
 P, BAR            101.33   90.542   53.580   5.7785
 T, K             2916.24  2884.73  2621.55  1682.93
 RHO, KG/CU M    7.9609 0 7.1928 0 4.6931 0 7.8986-1
 H, KJ/KG         -909.88  -984.84 -1614.21 -3672.72
 U, KJ/KG        -2182.67 -2243.62 -2755.88 -4404.31
 G, KJ/KG        -35878.2 -35642.3 -33109.8 -23891.7
 S, KJ/(KG)(K)    11.9909  12.0141  12.0141  12.0141

 M, (1/n)          19.050   19.054   19.092   19.127
 (dLV/dLP)t      -1.00204 -1.00193 -1.00092 -1.00001
 (dLV/dLT)p        1.0399   1.0382   1.0199   1.0003
 Cp, KJ/(KG)(K)    2.5621   2.5481   2.3784   2.1100
 GAMMAs            1.2228   1.2235   1.2339   1.2597
 SON VEL,M/SEC     1247.5   1241.0   1186.9    960.0
 MACH NUMBER        0.000    0.312    1.000    2.449

 PERFORMANCE PARAMETERS

 Ae/At                      2.0000   1.0000   3.0000
 CSTAR, M/SEC               1724.7   1724.7   1724.7
 CF                         0.2245   0.6882   1.3630
 Ivac, M/SEC                3638.2   2148.8   2661.9
 Isp, M/SEC                  387.2   1186.9   2350.7

 MOLE FRACTIONS

 *C              1.501-10 1.154-10 1.011-11 3.779-18
 *CH             4.188-10 3.221-10 3.668-11 1.127-16
 CH2             8.496 -9 6.806 -9 1.466 -9 3.479-13
 CH3             1.8092-7 1.5308-7 7.1323-8 3.1969-9
 CH2OH           5.691 -9 4.623 -9 1.469 -9 5.891-12
 CH3O            1.273 -9 1.012 -9 2.642-10 3.646-13
 CH4             5.1132-7 4.4965-7 3.9320-7 1.6878-6
 CH3OH           3.487 -9 2.909 -9 1.545 -9 2.575-10
 CH3OOH          6.147-15 4.417-15 5.856-16 2.026-20
 *CO             4.6000-1 4.5980-1 4.5784-1 4.3479-1
 *CO2            4.4274-2 4.4580-2 4.7555-2 7.1532-2
 COOH            3.0608-6 2.6906-6 1.0555-6 5.7110-9
 *C2             5.611-14 3.905-14 2.284-15 2.027-22
 C2H             2.253-11 1.666-11 2.233-12 5.619-17
 C2H2,acetylene  6.505 -9 5.300 -9 2.272 -9 1.179-10
 C2H2,vinylidene 1.682-11 1.267-11 2.620-12 1.419-15
 CH2CO,ketene    1.663 -8 1.370 -8 6.480 -9 5.735-10
 O(CH)2O         2.439-11 1.917-11 5.868-12 3.618-14
 HO(CO)2OH       2.496-13 1.956-13 5.798-14 3.031-16
 C2H3,vinyl      8.252-12 6.189-12 1.595-12 5.796-15
 CH3CO,acetyl    3.673-11 2.806-11 8.560-12 9.192-14
 C2H4            3.973-11 3.146-11 1.747-11 1.225-11
 C2H4O,ethylen-o 4.926-15 3.628-15 1.030-15 1.239-17
 CH3CHO,ethanal  6.955-12 5.407-12 2.528-12 6.021-13
 CH3COOH         8.490-13 6.578-13 2.981-13 6.156-14
 OHCH2COOH       1.807-14 1.323-14 3.547-15 3.099-17
 C2H5            8.815-14 6.414-14 2.108-14 9.914-16
 C2H6            4.375-14 3.295-14 1.944-14 5.709-14
 C2H5OH          1.482-15 1.062-15 3.942-16 6.600-17
 C2O             1.348 -9 1.063 -9 1.978-10 2.135-14
 *C3             3.897-16 2.585-16 1.633-17 6.144-24
 C3H3,2-propynl  2.418-14 1.690-14 3.834-15 1.972-17
 C3H4,allene     1.538-15 1.083-15 3.423-16 2.359-17
 C3H4,propyne    3.302-15 2.333-15 7.611-16 6.309-17
 C3O2            8.715-11 6.884-11 2.210-11 1.997-13
 *H              6.4683-3 6.1750-3 3.0999-3 2.9456-5
 HCO             2.5120-5 2.2175-5 9.0467-6 6.1139-8
 HCCO            8.910-10 7.005-10 1.653-10 1.220-13
 HO2             5.982 -8 5.003 -8 7.311 -9 3.233-14
 *H2             2.8766-1 2.8811-1 2.9266-1 3.1835-1
 HCHO,formaldehy 5.5035-6 4.9182-6 2.9255-6 3.4373-7
 HCOOH           3.4846-6 3.1070-6 1.8108-6 1.9721-7
 H2O             2.0002-1 1.9988-1 1.9828-1 1.7530-1
 H2O2            7.143 -8 6.044 -8 1.276 -8 8.750-13
 (HCOOH)2        1.050-16 7.600-17 1.832-17 9.021-20
 *O              1.935 -5 1.718 -5 3.377 -6 5.947-11
 *OH             1.5171-3 1.4089-3 5.4478-4 9.2704-7
 *O2             5.348 -6 4.748 -6 9.290 -7 1.475-11
 O3              1.379-13 1.011-13 3.408-15 1.528-24

  * THERMODYNAMIC PROPERTIES FITTED TO 20000.K

              THEORETICAL ROCKET PERFORMANCE ASSUMING EQUILIBRIUM

            COMPOSITION DURING EXPANSION FROM FINITE AREA COMBUSTOR

 Pin =  1469.6 PSIA
 Ac/At =  2.0000      Pinj/Pinf =  1.055156
 CASE = test___________

             REACTANT                       MOLES         ENERGY      TEMP
                                                         KJ/KG-MOL      K
 FUEL        RP-1                       100.0000000    -24717.700    298.150
 OXIDANT     O2(L)                      100.0000000    -12979.000     90.170

 O/F=    1.62175  %FUEL= 38.142523  R,EQ.RATIO= 2.100000  PHI,EQ.RATIO= 2.100000

                 INJECTOR  COMB END  THROAT     EXIT
 Pinj/P            1.0000   1.1201   1.9001   17.835
 P, BAR            101.33   90.465   53.327   5.6812
 T, K             2760.50  2729.07  2465.10  1554.04
 RHO, KG/CU M    8.1716 0 7.3808 0 4.8226 0 8.1575-1
 H, KJ/KG         -925.47  -999.05 -1614.78 -3602.35
 U, KJ/KG        -2165.44 -2224.73 -2720.54 -4298.78
 G, KJ/KG        -34210.4 -33970.8 -31397.3 -22377.8
 S, KJ/(KG)(K)    12.0576  12.0817  12.0817  12.0817

 M, (1/n)          18.510   18.513   18.536   18.553
 (dLV/dLP)t      -1.00118 -1.00111 -1.00048 -1.00004
 (dLV/dLT)p        1.0239   1.0227   1.0107   1.0004
 Cp, KJ/(KG)(K)    2.4502   2.4382   2.3094   2.1231
 GAMMAs            1.2361   1.2369   1.2468   1.2678
 SON VEL,M/SEC     1238.0   1231.3   1174.1    939.6
 MACH NUMBER        0.000    0.312    1.000    2.462

 PERFORMANCE PARAMETERS

 Ae/At                      2.0000   1.0000   3.0000
 CSTAR, M/SEC               1695.9   1695.9   1695.9
 CF                         0.2262   0.6924   1.3644
 Ivac, M/SEC                3578.8   2115.9   2614.8
 Isp, M/SEC                  383.6   1174.1   2313.8

 MOLE FRACTIONS

 *C              4.981-11 3.719-11 2.393-12 1.589-19
 *CH             1.946-10 1.462-10 1.304-11 1.027-17
 CH2             6.812 -9 5.384 -9 1.012 -9 1.148-13
 CH3             2.6942-7 2.2768-7 1.0540-7 4.7454-9
 CH2OH           5.434 -9 4.388 -9 1.318 -9 3.991-12
 CH3O            1.088 -9 8.580-10 2.078-10 1.971-13
 CH4             1.3032-6 1.1578-6 1.1353-6 9.8536-6
 CH3OH           5.353 -9 4.481 -9 2.485 -9 5.572-10
 CH3OOH          3.458-15 2.452-15 2.850-16 4.976-21
 *CO             4.6806-1 4.6783-1 4.6549-1 4.4085-1
 *CO2            3.7079-2 3.7378-2 4.0362-2 6.5480-2
 COOH            1.7788-6 1.5504-6 5.5804-7 1.8883-9
 *C2             2.561-14 1.732-14 7.536-16 1.292-23
 C2H             1.971-11 1.435-11 1.644-12 1.791-17
 C2H2,acetylene  1.314 -8 1.072 -8 4.699 -9 2.936-10
 C2H2,vinylidene 2.267-11 1.695-11 3.251-12 1.209-15
 CH2CO,ketene    2.8134-8 2.3233-8 1.1375-8 1.2917-9
 O(CH)2O         2.568-11 2.013-11 6.043-12 3.555-14
 HO(CO)2OH       1.621-13 1.267-13 3.692-14 1.871-16
 C2H3,vinyl      1.520-11 1.137-11 2.887-12 1.032-14
 CH3CO,acetyl    5.888-11 4.497-11 1.388-11 1.711-13
 C2H4            1.356-10 1.084-10 6.763-11 9.926-11
 C2H4O,ethylen-o 9.172-15 6.770-15 1.990-15 3.177-17
 CH3CHO,ethanal  1.710-11 1.340-11 6.890-12 3.054-12
 CH3COOH         1.625-12 1.269-12 6.326-13 2.467-13
 OHCH2COOH       2.046-14 1.501-14 4.160-15 4.843-17
 C2H5            2.719-13 1.991-13 7.084-14 5.726-15
 C2H6            2.258-13 1.729-13 1.229-13 1.155-12
 C2H5OH          4.688-15 3.396-15 1.433-15 5.522-16
 C2O             9.277-10 7.209-10 1.161-10 5.717-15
 *C3             3.197-16 2.074-16 1.047-17 1.150-24
 C3H3,2-propynl  7.135-14 4.998-14 1.176-14 8.198-17
 C3H4,allene     6.597-15 4.687-15 1.657-15 2.406-16
 C3H4,propyne    1.441-14 1.028-14 3.765-15 6.704-16
 C3H4,cyclo-     1.175-16 7.997-17 1.890-17 2.398-19
 C3H5,allyl      2.301-16 1.563-16 4.736-17 4.795-18
 C3H6,propylene  1.680-16 1.164-16 5.588-17 1.493-16
 C3O2            1.107-10 8.730-11 2.784-11 2.581-13
 C4H2,butadiyne  2.247-16 1.493-16 2.810-17 9.465-20
 *H              3.9844-3 3.7612-3 1.6751-3 8.1688-6
 HCO             1.8829-5 1.6485-5 6.1817-6 2.6311-8
 HCCO            8.466-10 6.598-10 1.428-10 6.779-14
 HO2             1.167 -8 9.505 -9 1.053 -9 9.617-16
 *H2             3.1745-1 3.1787-1 3.2205-1 3.4815-1
 HCHO,formaldehy 6.1516-6 5.4928-6 3.2542-6 3.8456-7
 HCOOH           3.0510-6 2.7183-6 1.5796-6 1.7717-7
 H2O             1.7276-1 1.7254-1 1.7022-1 1.4550-1
 H2O2            2.069 -8 1.717 -8 2.964 -9 6.548-14
 *O              4.638 -6 4.015 -6 6.031 -7 2.301-12
 *OH             6.4146-4 5.8701-4 1.9427-4 1.3617-7
 *O2             1.014 -6 8.779 -7 1.311 -7 4.431-13
 O3              7.757-15 5.438-15 1.140-16 3.335-27

  * THERMODYNAMIC PROPERTIES FITTED TO 20000.K

              THEORETICAL ROCKET PERFORMANCE ASSUMING EQUILIBRIUM

            COMPOSITION DURING EXPANSION FROM FINITE AREA COMBUSTOR

 Pin =  1469.6 PSIA
 Ac/At =  2.0000      Pinj/Pinf =  1.055531
 CASE = test___________

             REACTANT                       MOLES         ENERGY      TEMP
                                                         KJ/KG-MOL      K
 FUEL        RP-1                       100.0000000    -24717.700    298.150
 OXIDANT     O2(L)                      100.0000000    -12979.000     90.170

 O/F=    1.54803  %FUEL= 39.246004  R,EQ.RATIO= 2.200000  PHI,EQ.RATIO= 2.200000

                 INJECTOR  COMB END  THROAT     EXIT
 Pinj/P            1.0000   1.1209   1.9080   18.109
 P, BAR            101.33   90.396   53.104   5.5952
 T, K             2606.86  2575.77  2314.39  1436.11
 RHO, KG/CU M    8.4186 0 7.6019 0 4.9738 0 8.4503-1
 H, KJ/KG         -940.51 -1012.40 -1612.21 -3526.15
 U, KJ/KG        -2144.09 -2201.52 -2679.88 -4188.28
 G, KJ/KG        -32511.7 -32271.3 -29699.0 -20954.4
 S, KJ/(KG)(K)    12.1108  12.1357  12.1357  12.1357

 M, (1/n)          18.009   18.010   18.023   18.034
 (dLV/dLP)t      -1.00067 -1.00062 -1.00025 -1.00025
 (dLV/dLT)p        1.0139   1.0130   1.0055   1.0025
 Cp, KJ/(KG)(K)    2.3763   2.3663   2.2696   2.1470
 GAMMAs            1.2485   1.2494   1.2583   1.2748
 SON VEL,M/SEC     1225.8   1218.9   1159.1    918.8
 MACH NUMBER        0.000    0.311    1.000    2.475

 PERFORMANCE PARAMETERS

 Ae/At                      2.0000   1.0000   3.0000
 CSTAR, M/SEC               1665.2   1665.2   1665.2
 CF                         0.2277   0.6961   1.3657
 Ivac, M/SEC                3515.2   2080.2   2565.2
 Isp, M/SEC                  379.2   1159.0   2274.0

 MOLE FRACTIONS

 *C              1.434-11 1.037-11 4.848-13 5.239-21
 *CH             8.023-11 5.876-11 4.069-12 7.682-19
 CH2             5.057 -9 3.940 -9 6.443-10 3.386-14
 CH3             3.9145-7 3.3047-7 1.5234-7 6.9626-9
 CH2OH           4.951 -9 3.972 -9 1.128 -9 2.559-12
 CH3O            8.799-10 6.883-10 1.547-10 9.982-14
 CH4             3.4047-6 3.0596-6 3.3928-6 6.2584-5
 CH3OH           8.1525-9 6.8515-9 3.9900-9 1.2336-9
 CH3OOH          1.784-15 1.247-15 1.271-16 1.087-21
 *CO             4.7453-1 4.7429-1 4.7168-1 4.4594-1
 *CO2            3.1131-2 3.1426-2 3.4411-2 6.0389-2
 COOH            9.853 -7 8.511 -7 2.807 -7 5.795-10
 *C2             1.018-14 6.674-15 2.139-16 6.567-25
 C2H             1.589-11 1.138-11 1.110-12 5.090-18
 C2H2,acetylene  2.635 -8 2.154 -8 9.699 -9 7.504-10
 C2H2,vinylidene 2.905-11 2.154-11 3.829-12 9.750-16
 CH2CO,ketene    4.7545-8 3.9383-8 2.0049-8 3.0047-9
 O(CH)2O         2.636-11 2.061-11 6.091-12 3.457-14
 HO(CO)2OH       1.028-13 8.016-14 2.309-14 1.141-16
 C2H3,vinyl      2.718-11 2.029-11 5.092-12 1.822-14
 CH3CO,acetyl    9.272-11 7.086-11 2.223-11 3.230-13
 C2H4            4.737-10 3.831-10 2.709-10 8.852-10
 C2H4O,ethylen-o 1.686-14 1.248-14 3.824-15 8.392-17
 CH3CHO,ethanal  4.264-11 3.372-11 1.924-11 1.673-11
 CH3COOH         3.157-12 2.488-12 1.378-12 1.071-12
 OHCH2COOH       2.287-14 1.682-14 4.861-15 7.792-17
 C2H5            8.394-13 6.190-13 2.405-13 3.523-14
 C2H6            1.217-12 9.487-13 8.238-13 2.707-11
 C2H5OH          1.508-14 1.106-14 5.370-15 5.099-15
 CH3OCH3         2.306-16 1.645-16 6.165-17 1.233-17
 C2O             5.954-10 4.557-10 6.329-11 1.377-15
 *C3             2.356-16 1.492-16 5.972-18 1.829-25
 C3H3,1-propynl  1.818-16 1.202-16 1.665-17 5.017-21
 C3H3,2-propynl  2.089-13 1.467-13 3.606-14 3.564-16
 C3H4,allene     2.887-14 2.073-14 8.287-15 2.722-15
 C3H4,propyne    6.432-14 4.638-14 1.927-14 7.925-15
 C3H4,cyclo-     4.130-16 2.828-16 7.208-17 1.579-18
 C3H5,allyl      1.110-15 7.624-16 2.647-16 6.649-17
 C3H6,propylene  1.248-15 8.816-16 5.263-16 5.606-15
 C3O2            1.394-10 1.098-10 3.493-11 3.386-13
 C4H2,butadiyne  8.290-16 5.527-16 1.097-16 5.654-19
 *H              2.3069-3 2.1515-3 8.4655-4 2.0484-6
 HCO             1.3460-5 1.1681-5 4.0175-6 1.0538-8
 HCCO            7.657-10 5.912-10 1.174-10 3.541-14
 HO2             1.993 -9 1.578 -9 1.312-10 2.253-17
 *H2             3.4499-1 3.4538-1 3.4917-1 3.7554-1
 HCHO,formaldehy 6.7582-6 6.0307-6 3.5656-6 4.2620-7
 HCOOH           2.6274-6 2.3399-6 1.3605-6 1.5843-7
 H2O             1.4676-1 1.4650-1 1.4381-1 1.1806-1
 H2O2            5.396 -9 4.387 -9 6.158-10 4.092-15
 *O              9.832 -7 8.282 -7 9.406 -8 7.125-14
 *OH             2.5082-4 2.2593-4 6.3626-5 1.7424-8
 *O2             1.700 -7 1.432 -7 1.615 -8 1.058-14
 O3              3.522-16 2.353-16 3.015-18 4.867-30

  * THERMODYNAMIC PROPERTIES FITTED TO 20000.K

              THEORETICAL ROCKET PERFORMANCE ASSUMING EQUILIBRIUM

            COMPOSITION DURING EXPANSION FROM FINITE AREA COMBUSTOR

 Pin =  1469.6 PSIA
 Ac/At =  2.0000      Pinj/Pinf =  1.055869
 CASE = test___________

             REACTANT                       MOLES         ENERGY      TEMP
                                                         KJ/KG-MOL      K
 FUEL        RP-1                       100.0000000    -24717.700    298.150
 OXIDANT     O2(L)                      100.0000000    -12979.000     90.170

 O/F=    1.48072  %FUEL= 40.310805  R,EQ.RATIO= 2.300000  PHI,EQ.RATIO= 2.300000

                 INJECTOR  COMB END  THROAT     EXIT
 Pinj/P            1.0000   1.1217   1.9152   18.346
 P, BAR            101.33   90.334   52.905   5.5230
 T, K             2456.96  2426.45  2170.21  1329.56
 RHO, KG/CU M    8.7017 0 7.8557 0 5.1461 0 8.7782-1
 H, KJ/KG         -955.02 -1024.98 -1607.12 -3445.13
 U, KJ/KG        -2119.45 -2174.89 -2635.18 -4074.31
 G, KJ/KG        -30809.4 -30571.1 -28033.1 -19634.7
 S, KJ/(KG)(K)    12.1509  12.1767  12.1767  12.1767

 M, (1/n)          17.544   17.545   17.552   17.570
 (dLV/dLP)t      -1.00039 -1.00036 -1.00015 -1.00170
 (dLV/dLT)p        1.0078   1.0073   1.0029   1.0185
 Cp, KJ/(KG)(K)    2.3295   2.3213   2.2486   2.2446
 GAMMAs            1.2598   1.2607   1.2686   1.2771
 SON VEL,M/SEC     1211.2   1204.0   1142.0    896.4
 MACH NUMBER        0.000    0.311    1.000    2.490

 PERFORMANCE PARAMETERS

 Ae/At                      2.0000   1.0000   3.0000
 CSTAR, M/SEC               1632.9   1632.9   1632.9
 CF                         0.2291   0.6994   1.3667
 Ivac, M/SEC                3448.2   2042.2   2513.6
 Isp, M/SEC                  374.1   1142.0   2231.6

 MOLE FRACTIONS

 *C              3.592-12 2.512-12 8.413-14 1.421-22
 *CH             2.951-11 2.104-11 1.120-12 4.910-20
 CH2             3.505 -9 2.690 -9 3.809-10 9.140-15
 CH3             5.6130-7 4.7348-7 2.1782-7 1.0165-8
 CH2OH           4.325 -9 3.449 -9 9.266-10 1.567-12
 CH3O            6.770-10 5.253-10 1.095-10 4.790-14
 CH4             9.2532-6 8.4215-6 1.0658-5 4.2824-4
 CH3OH           1.2420-8 1.0488-8 6.4494-9 2.7814-9
 CH3OOH          8.447-16 5.821-16 5.190-17 2.142-22
 *CO             4.7987-1 4.7962-1 4.7688-1 4.5050-1
 *CO2            2.6102-2 2.6389-2 2.9344-2 5.5831-2
 COOH            5.183 -7 4.436 -7 1.337 -7 1.665-10
 *C2             3.560-15 2.259-15 5.266-17 2.800-26
 C2H             1.197-11 8.425-12 6.967-13 1.333-18
 C2H2,acetylene  5.3432-8 4.3779-8 2.0335-8 1.9851-9
 C2H2,vinylidene 3.592-11 2.641-11 4.350-12 7.600-16
 CH2CO,ketene    8.1199-8 6.7508-8 3.5920-8 7.2336-9
 O(CH)2O         2.653-11 2.071-11 6.043-12 3.345-14
 HO(CO)2OH       6.337-14 4.934-14 1.410-14 6.839-17
 C2H3,vinyl      4.804-11 3.581-11 8.911-12 3.233-14
 CH3CO,acetyl    1.454-10 1.113-10 3.567-11 6.209-13
 C2H4            1.7310-9 1.4177-9 1.1482-9 8.6491-9
 C2H4O,ethylen-o 3.105-14 2.307-14 7.424-15 2.289-16
 CH3CHO,ethanal  1.096-10 8.755-11 5.601-11 9.832-11
 CH3COOH         6.286-12 5.007-12 3.114-12 4.990-12
 OHCH2COOH       2.535-14 1.871-14 5.685-15 1.283-16
 C2H5            2.652-12 1.973-12 8.448-13 2.311-13
 C2H6            7.025-12 5.589-12 6.022-12 7.256-10
 C2H5OH          5.034-14 3.743-14 2.118-14 5.143-14
 CH3OCH3         6.702-16 4.835-16 2.053-16 8.950-17
 C2O             3.588-10 2.703-10 3.222-11 3.064-16
 *C3             1.585-16 9.794-17 3.082-18 2.588-26
 C3H3,1-propynl  3.991-16 2.632-16 3.596-17 1.097-20
 C3H3,2-propynl  6.226-13 4.391-13 1.135-13 1.641-15
 C3H4,allene     1.327-13 9.644-14 4.409-14 3.424-14
 C3H4,propyne    3.018-13 2.204-13 1.052-13 1.043-13
 C3H4,cyclo-     1.493-15 1.029-15 2.857-16 1.122-17
 C3H5,allyl      5.626-15 3.917-15 1.580-15 1.032-15
 C3H6,propylene  1.006-14 7.263-15 5.488-15 2.473-13
 C3H6,cyclo-     5.434-17 3.834-17 2.328-17 3.050-16
 C3H6O,acetone   1.914-16 1.366-16 9.189-17 1.952-15
 C3H6O,propanal  1.940-16 1.352-16 7.267-17 4.154-16
 C3H8            1.321-17 9.190-18 8.519-18 3.824-15
 C3O2            1.757-10 1.384-10 4.405-11 4.546-13
 C4H2,butadiyne  3.158-15 2.116-15 4.464-16 3.667-18
 *H              1.2559-3 1.1563-3 3.9996-4 4.7226-7
 HCO             9.1916-6 7.9033-6 2.4861-6 3.9779-9
 HCCO            6.649-10 5.085-10 9.247-11 1.771-14
 HO2             2.945-10 2.262-10 1.394-11 4.276-19
 *H2             3.7033-1 3.7069-1 3.7413-1 3.9992-1
 HCHO,formaldehy 7.3300-6 6.5383-6 3.8650-6 4.6871-7
 HCOOH           2.2243-6 1.9807-6 1.1556-6 1.4067-7
 H2O             1.2232-1 1.2205-1 1.1922-1 9.3321-2
 H2O2            1.255 -9 9.983-10 1.130-10 2.176-16
 *O              1.827 -7 1.495 -7 1.267 -8 1.824-15
 *OH             9.0179-5 7.9865-5 1.8999-5 1.9753-9
 *O2             2.484 -8 2.031 -8 1.708 -9 2.067-16

  * THERMODYNAMIC PROPERTIES FITTED TO 20000.K

              THEORETICAL ROCKET PERFORMANCE ASSUMING EQUILIBRIUM

            COMPOSITION DURING EXPANSION FROM FINITE AREA COMBUSTOR

 Pin =  1469.6 PSIA
 Ac/At =  2.0000      Pinj/Pinf =  1.056173
 CASE = test___________

             REACTANT                       MOLES         ENERGY      TEMP
                                                         KJ/KG-MOL      K
 FUEL        RP-1                       100.0000000    -24717.700    298.150
 OXIDANT     O2(L)                      100.0000000    -12979.000     90.170

 O/F=    1.41903  %FUEL= 41.338925  R,EQ.RATIO= 2.400000  PHI,EQ.RATIO= 2.400000

                 INJECTOR  COMB END  THROAT     EXIT
 Pinj/P            1.0000   1.1224   1.9218   18.425
 P, BAR            101.33   90.278   52.725   5.4993
 T, K             2311.85  2282.09  2032.85  1243.94
 RHO, KG/CU M    9.0212 0 8.1427 0 5.3398 0 9.1485-1
[...]
 C3H8O,2propanol 5.780-17 4.146-17 5.243-17 6.881-16
 C3O2            3.977-10 3.133-10 1.019-10 1.070-12
 C4H2,butadiyne  3.189-13 2.185-13 5.763-14 2.543-16
 C4H6,butadiene  1.694-14 1.216-14 1.561-14 1.868-13
 C4H6,1butyne    1.644-15 1.139-15 1.024-15 2.139-15
 C4H6,2butyne    1.241-15 8.767-16 9.517-16 4.617-15
 C4H8,1-butene   2.963-16 2.102-16 4.172-16 4.295-14
 C4H8,cis2-buten 1.157-16 8.282-17 1.796-16 2.714-14
 C4H8,tr2-butene 1.301-16 9.311-17 2.017-16 3.084-14
 C4H8,isobutene  1.410-16 1.014-16 2.294-16 4.262-14
 C4H10,n-butane  1.800-18 1.260-18 3.860-18 3.923-15
 C4H10,isobutane 5.691-19 4.008-19 1.309-18 1.794-15
 C5H6,1,3cyclo-  1.525-17 1.078-17 2.074-17 1.793-15
 C6H6            2.407-18 1.773-18 8.834-18 6.969-14
 *H              1.3823-4 1.2170-4 2.7680-5 2.9541-8
 HCO             2.226 -6 1.855 -6 4.377 -7 6.640-10
 HCCO            3.752-10 2.784-10 3.838-11 6.144-15
 HO2             3.195-13 2.208-13 5.113-15 2.017-22
 *H2             4.3413-1 4.3441-1 4.3647-1 4.2548-1
 HCHO,formaldehy 8.9276-6 7.9631-6 4.7409-6 5.7250-7
 HCOOH           1.1607-6 1.0349-6 6.2079-7 1.0388-7
 H2O             5.9143-2 5.8895-2 5.6646-2 5.0118-2
 H2O2            6.574-12 4.845-12 2.723-13 6.978-19
 *O              4.625-10 3.415-10 1.114-11 1.697-18
 *OH             2.273 -6 1.897 -6 2.599 -7 2.895-11
 *O2             2.702-11 1.992-11 6.414-13 1.024-19

  * THERMODYNAMIC PROPERTIES FITTED TO 20000.K

              THEORETICAL ROCKET PERFORMANCE ASSUMING EQUILIBRIUM

            COMPOSITION DURING EXPANSION FROM FINITE AREA COMBUSTOR

 Pin =  1469.6 PSIA
 Ac/At =  2.0000      Pinj/Pinf =  1.056765
 CASE = test___________

             REACTANT                       MOLES         ENERGY      TEMP
                                                         KJ/KG-MOL      K
 FUEL        RP-1                       100.0000000    -24717.700    298.150
 OXIDANT     O2(L)                      100.0000000    -12979.000     90.170

 O/F=    1.26136  %FUEL= 44.221218  R,EQ.RATIO= 2.700000  PHI,EQ.RATIO= 2.700000

                 INJECTOR  COMB END  THROAT     EXIT
 Pinj/P            1.0000   1.1237   1.9308   16.875
 P, BAR            101.33   90.170   52.477   6.0045
 T, K             1914.17  1887.27  1672.64  1163.17
 RHO, KG/CU M    1.0209e1 9.2140 0 6.0643 0 1.0503 0
 H, KJ/KG        -1008.32 -1068.85 -1567.28 -3078.62
 U, KJ/KG        -2000.84 -2047.48 -2432.63 -3650.29
 G, KJ/KG        -24328.3 -24115.2 -21992.7 -17282.6
 S, KJ/(KG)(K)    12.1828  12.2115  12.2115  12.2115

 M, (1/n)          16.035   16.034   16.071   16.917
 MW, MOL WT        16.035   16.034   16.071   16.740
 (dLV/dLP)t      -1.00402 -1.00390 -1.00800 -1.07994
 (dLV/dLT)p        1.0288   1.0285   1.0667   2.1359
 Cp, KJ/(KG)(K)    2.3751   2.3709   2.5163  10.4052
 GAMMAs            1.2938   1.2944   1.2919   1.1568
 SON VEL,M/SEC     1133.2   1125.5   1057.3    813.2
 MACH NUMBER        0.000    0.309    1.000    2.502

 PERFORMANCE PARAMETERS

 Ae/At                      2.0000   1.0000   3.0000
 CSTAR, M/SEC               1495.4   1495.4   1495.4
 CF                         0.2327   0.7071   1.3608
 Ivac, M/SEC                3160.5   1875.8   2315.8
 Isp, M/SEC                  347.9   1057.3   2034.8

 MOLE FRACTIONS

 *C              3.940-15 2.349-15 2.031-17 1.596-25
 *CH             2.002-13 1.259-13 2.295-15 2.951-22
 CH2             4.964-10 3.560-10 2.787-11 9.064-16
 CH3             2.6882-6 2.2693-6 1.0243-6 2.6853-8
 CH2OH           1.759 -9 1.366 -9 2.966-10 6.579-13
 CH3O            1.531-10 1.147-10 1.805-11 1.273-14
 CH4             1.0276-3 9.9900-4 2.1408-3 2.3041-2
 CH3OH           7.4874-8 6.4974-8 5.0549-8 1.4844-8
 *CO             4.9551-1 4.9531-1 4.9294-1 4.5547-1
 *CO2            1.0811-2 1.1007-2 1.3406-2 4.0670-2
 COOH            1.999 -8 1.637 -8 3.550 -9 1.309-11
 C2H             2.852-12 1.859-12 7.760-14 1.619-19
 C2H2,acetylene  1.5756-6 1.3145-6 6.7830-7 2.1420-8
 C2H2,vinylidene 8.967-11 6.371-11 7.540-12 7.708-16
 CH2CO,ketene    1.0058-6 8.5606-7 5.4560-7 5.5180-8
 O(CH)2O         2.424-11 1.883-11 5.391-12 3.768-14
 HO(CO)2OH       5.191-15 4.025-15 1.211-15 2.221-17
 C2H3,vinyl      6.618-10 4.927-10 1.164-10 1.653-13
 CH3CO,acetyl    1.125 -9 8.723-10 3.084-10 3.176-12
 C2H4            8.1284-7 7.1335-7 9.8408-7 1.2251-6
 C2H4O,ethylen-o 5.023-13 3.832-13 1.523-13 2.368-15
 CH3CHO,ethanal  8.9882-9 7.6080-9 7.7829-9 4.4454-9
 CH3COOH         1.487-10 1.256-10 1.302-10 1.243-10
 OHCH2COOH       3.372-14 2.554-14 1.018-14 3.689-16
 C2H5            5.667-10 4.433-10 2.778-10 1.560-11
 C2H6            2.7774-8 2.4619-8 6.2801-8 7.6305-7
 C2H5OH          1.320-11 1.060-11 1.133-11 6.996-12
 CH3OCH3         8.895-14 6.837-14 4.893-14 6.450-15
 C2O             3.007-11 2.108-11 1.355-12 2.238-17
 C3H3,1-propynl  1.636-14 1.077-14 1.356-15 1.114-19
 C3H3,2-propynl  1.162-10 8.433-11 2.606-11 7.037-14
 C3H4,allene     1.987-10 1.548-10 1.192-10 1.053-11
 C3H4,propyne    4.998-10 3.920-10 3.197-10 3.496-11
 C3H4,cyclo-     6.843-13 4.942-13 1.895-13 1.148-15
 C3H5,allyl      1.299-11 9.771-12 7.095-12 4.932-13
 C3H6,propylene  2.119-10 1.724-10 3.316-10 9.054-10
 C3H6,cyclo-     6.857-13 5.403-13 7.770-13 7.209-13
 C3H6O,propylox  1.021-16 7.264-17 4.254-17 1.804-18
 C3H6O,acetone   9.350-13 7.472-13 1.257-12 2.945-12
 C3H6O,propanal  5.576-13 4.307-13 5.326-13 3.910-13
 C3H7,n-propyl   3.898-14 2.787-14 2.138-14 1.601-15
 C3H7,i-propyl   3.280-14 2.372-14 2.013-14 2.184-15
 C3H8            1.935-12 1.571-12 5.001-12 8.768-11
 C3H8O,1propanol 8.120-16 5.986-16 8.134-16 7.694-16
 C3H8O,2propanol 7.852-16 5.852-16 8.795-16 1.255-15
 C3O2            5.724-10 4.520-10 1.467-10 1.206-12
 C4H2,butadiyne  2.184-12 1.516-12 3.953-13 3.952-16
 C4H6,butadiene  4.632-13 3.465-13 5.161-13 3.809-13
 C4H6,1butyne    3.787-14 2.720-14 2.753-14 4.252-15
 C4H6,2butyne    3.137-14 2.302-14 2.842-14 9.286-15
 C4H6,cyclo-     9.304-16 6.736-16 7.377-16 1.609-16
 C4H8,1-butene   1.366-14 1.019-14 2.454-14 9.770-14
 C4H8,cis2-buten 5.576-15 4.199-15 1.110-14 6.204-14
 C4H8,tr2-butene 6.264-15 4.717-15 1.246-14 7.053-14
 C4H8,isobutene  6.940-15 5.253-15 1.452-14 9.775-14
 C4H10,n-butane  1.393-16 1.034-16 4.068-16 9.983-15
 C4H10,isobutane 4.543-17 3.399-17 1.430-16 4.586-15
 C5H6,1,3cyclo-  9.669-16 7.191-16 1.661-15 4.282-15
 C5H8,cyclo-     6.473-18 4.712-18 1.511-17 1.276-16
 C6H6            4.627-16 3.644-16 2.336-15 2.020-13
 C7H8            1.729-19 1.264-19 1.141-18 2.234-16
 *H              5.8942-5 5.1025-5 1.0535-5 2.5691-8
 HCO             1.278 -6 1.053 -6 2.327 -7 6.207-10
 HCCO            3.120-10 2.291-10 2.926-11 6.340-15
 HO2             2.134-14 1.416-14 2.719-16 1.341-22
 *H2             4.5068-1 4.5094-1 4.5096-1 4.2353-1
 HCHO,formaldehy 9.4287-6 8.4153-6 5.0224-6 5.9232-7
 HCOOH           8.5551-7 7.6339-7 4.7215-7 1.0162-7
 H2O             4.1900-2 4.1672-2 4.0531-2 4.6802-2
 H2O2            7.933-13 5.676-13 2.819-14 5.121-19
 *O              4.512-11 3.202-11 8.559-13 1.177-18
 *OH             5.263 -7 4.293 -7 5.270 -8 2.290-11
 *O2             1.826-12 1.293-12 3.470-14 6.673-20
 C(gr)           0.0000 0 0.0000 0 0.0000 0 1.0480-2

  * THERMODYNAMIC PROPERTIES FITTED TO 20000.K

              THEORETICAL ROCKET PERFORMANCE ASSUMING EQUILIBRIUM

            COMPOSITION DURING EXPANSION FROM FINITE AREA COMBUSTOR

 Pin =  1469.6 PSIA
 Ac/At =  2.0000      Pinj/Pinf =  1.056459
 CASE = test___________

             REACTANT                       MOLES         ENERGY      TEMP
                                                         KJ/KG-MOL      K
 FUEL        RP-1                       100.0000000    -24717.700    298.150
 OXIDANT     O2(L)                      100.0000000    -12979.000     90.170

 O/F=    1.21631  %FUEL= 45.120054  R,EQ.RATIO= 2.800000  PHI,EQ.RATIO= 2.800000

                 INJECTOR  COMB END  THROAT     EXIT
 Pinj/P            1.0000   1.1230   1.9190   16.239
 P, BAR            101.33   90.228   52.800   6.2396
 T, K             1807.70  1782.01  1593.30  1163.71
 RHO, KG/CU M    1.0654e1 9.6231 0 6.3407 0 1.0923 0
 H, KJ/KG        -1020.57 -1078.23 -1551.78 -3009.50
 U, KJ/KG        -1971.63 -2015.85 -2384.50 -3580.74
 G, KJ/KG        -23000.0 -22796.8 -20970.4 -17192.5
 S, KJ/(KG)(K)    12.1588  12.1877  12.1877  12.1877

 M, (1/n)          15.804   15.802   15.909   16.938
 MW, MOL WT        15.804   15.802   15.909   16.441
 (dLV/dLP)t      -1.01311 -1.01299 -1.02219 -1.08113
 (dLV/dLT)p        1.0998   1.1005   1.1951   2.1454
 Cp, KJ/(KG)(K)    2.6693   2.6741   3.1311  10.4474
 GAMMAs            1.2908   1.2908   1.2759   1.1563
 SON VEL,M/SEC     1108.0   1100.1   1030.7    812.7
 MACH NUMBER        0.000    0.309    1.000    2.454

 PERFORMANCE PARAMETERS

 Ae/At                      2.0000   1.0000   3.0000
 CSTAR, M/SEC               1467.5   1467.5   1467.5
 CF                         0.2314   0.7024   1.3591
 Ivac, M/SEC                3100.7   1838.6   2280.9
 Isp, M/SEC                  339.6   1030.7   1994.5

 MOLE FRACTIONS

 *C              7.033-16 4.047-16 3.611-18 1.560-25
 *CH             5.731-14 3.507-14 6.436-16 2.946-22
 CH2             3.146-10 2.226-10 1.682-11 9.202-16
 CH3             4.3052-6 3.6439-6 1.5155-6 2.7677-8
 CH2OH           1.330 -9 1.029 -9 2.260-10 6.887-13
 CH3O            9.981-11 7.433-11 1.199-11 1.335-14
 CH4             3.8001-3 3.7613-3 7.1584-3 2.4132-2
 CH3OH           1.1525-7 1.0086-7 7.6755-8 1.5819-8
 *CO             4.9853-1 4.9839-1 4.9593-1 4.3780-1
 *CO2            7.8213-3 7.9712-3 1.0481-2 3.9481-2
 COOH            7.576 -9 6.145 -9 1.483 -9 1.317-11
 C2H             2.323-12 1.493-12 5.686-14 1.614-19
 C2H2,acetylene  4.5813-6 3.8529-6 1.7013-6 2.1578-8
 C2H2,vinylidene 1.341-10 9.492-11 9.897-12 7.834-16
 CH2CO,ketene    2.1153-6 1.8157-6 1.0649-6 5.6146-8
 O(CH)2O         2.330-11 1.813-11 5.270-12 3.896-14
 HO(CO)2OH       2.199-15 1.706-15 6.107-16 2.348-17
 C2H3,vinyl      1.547 -9 1.156 -9 2.356-10 1.716-13
 CH3CO,acetyl    2.071 -9 1.616 -9 5.302-10 3.326-12
 C2H4            4.8253-6 4.3232-6 4.9198-6 1.2911-6
 C2H4O,ethylen-o 1.114-12 8.588-13 3.140-13 2.542-15
 CH3CHO,ethanal  3.0616-8 2.6370-8 2.4240-8 4.7459-9
 CH3COOH         3.342-10 2.871-10 2.907-10 1.341-10
 OHCH2COOH       3.226-14 2.466-14 1.064-14 4.049-16
 C2H5            2.693 -9 2.143 -9 1.119 -9 1.694-11
 C2H6            2.8470-7 2.6023-7 5.3305-7 8.4301-7
 C2H5OH          5.997-11 4.928-11 4.664-11 7.856-12
 CH3OCH3         3.370-13 2.642-13 1.690-13 7.261-15
 C2O             1.712-11 1.183-11 7.479-13 2.194-17
 C3H3,1-propynl  5.629-14 3.726-14 3.786-15 1.165-19
 C3H3,2-propynl  5.997-10 4.410-10 1.080-10 7.319-14
 C3H4,allene     1.771 -9 1.412 -9 8.393-10 1.117-11
 C3H4,propyne    4.575 -9 3.673 -9 2.308 -9 3.709-11
 C3H4,cyclo-     4.451-12 3.271-12 9.839-13 1.223-15
 C3H5,allyl      1.288-10 9.942-11 5.554-11 5.370-13
 C3H6,propylene  3.7384-9 3.1508-9 4.5226-9 1.0054-9
 C3H6,cyclo-     1.060-11 8.631-12 9.347-12 8.018-13
 C3H6O,propylox  6.901-16 5.037-16 2.452-16 2.039-18
 C3H6O,acetone   1.020-11 8.429-12 1.148-11 3.310-12
 C3H6O,propanal  5.290-12 4.215-12 4.253-12 4.402-13
 C3H7,n-propyl   5.189-13 3.826-13 2.219-13 1.833-15
 C3H7,i-propyl   4.572-13 3.411-13 2.182-13 2.500-15
 C3H8            5.607-11 4.758-11 1.103-10 1.021-10
 C3H8O,1propanol 1.052-14 8.043-15 8.774-15 9.109-16
 C3H8O,2propanol 1.064-14 8.234-15 9.923-15 1.485-15
 C3O2            8.709-10 6.904-10 2.124-10 1.188-12
 C4H2,butadiyne  1.784-11 1.258-11 2.429-12 4.025-16
 C4H4,1,3-cyclo- 1.032-15 6.974-16 1.435-16 2.306-20
 C4H6,butadiene  1.419-11 1.106-11 1.149-11 4.250-13
 C4H6,1butyne    9.776-13 7.283-13 5.155-13 4.756-15
 C4H6,2butyne    8.859-13 6.756-13 5.802-13 1.037-14
 C4H6,cyclo-     2.485-14 1.869-14 1.432-14 1.798-16
 C4H8,1-butene   6.826-13 5.343-13 8.711-13 1.144-13
 C4H8,cis2-buten 2.905-13 2.299-13 4.099-13 7.260-14
 C4H8,tr2-butene 3.262-13 2.582-13 4.604-13 8.253-14
 C4H8,isobutene  3.689-13 2.935-13 5.472-13 1.144-13
 C4H8,cyclo-     2.890-16 2.201-16 2.867-16 1.780-17
 C4H9,n-butyl    2.336-16 1.617-16 1.168-16 7.909-19
 C4H9,i-butyl    1.339-16 9.348-17 7.220-17 6.208-19
 C4H9,s-butyl    1.545-16 1.071-16 7.845-17 5.466-19
 C4H10,n-butane  1.135-14 8.934-15 2.324-14 1.226-14
 C4H10,isobutane 3.817-15 3.028-15 8.418-15 5.630-15
 C5H6,1,3cyclo-  7.080-14 5.538-14 8.128-14 4.782-15
 C5H8,cyclo-     7.188-16 5.546-16 1.108-15 1.496-16
 C5H10,1-pentene 1.035-16 7.541-17 1.416-16 1.121-17
 C6H6            1.052-13 8.841-14 3.249-13 2.250-13
 C6H5OH,phenol   1.308-16 1.012-16 2.096-16 3.102-17
 C7H8            1.174-16 9.290-17 4.345-16 2.621-16
 *H              2.5819-5 2.2033-5 4.7196-6 2.5188-8
 HCO             7.442 -7 6.076 -7 1.379 -7 6.174-10
 HCCO            2.772-10 2.022-10 2.480-11 6.349-15
 HO2             1.380-15 8.840-16 2.162-17 1.364-22
 *H2             4.6190-1 4.6214-1 4.5762-1 4.2205-1
 HCHO,formaldehy 9.8405-6 8.7948-6 5.2391-6 6.0087-7
 HCOOH           5.9490-7 5.3153-7 3.5651-7 1.0420-7
 H2O             2.7891-2 2.7696-2 2.8794-2 4.7179-2
 H2O2            9.022-14 6.293-14 3.869-15 5.313-19
 *O              4.503-12 3.090-12 9.758-14 1.151-18
 *OH             1.200 -7 9.591 -8 1.330 -8 2.278-11
 *O2             1.201-13 8.211-14 2.808-15 6.603-20
 C(gr)           0.0000 0 0.0000 0 0.0000 0 2.9350-2

  * THERMODYNAMIC PROPERTIES FITTED TO 20000.K

              THEORETICAL ROCKET PERFORMANCE ASSUMING EQUILIBRIUM

            COMPOSITION DURING EXPANSION FROM FINITE AREA COMBUSTOR

 Pin =  1469.6 PSIA
 Ac/At =  2.0000      Pinj/Pinf =  1.055983
 CASE = test___________

             REACTANT                       MOLES         ENERGY      TEMP
                                                         KJ/KG-MOL      K
 FUEL        RP-1                       100.0000000    -24717.700    298.150
 OXIDANT     O2(L)                      100.0000000    -12979.000     90.170

 O/F=    1.17437  %FUEL= 45.990382  R,EQ.RATIO= 2.900000  PHI,EQ.RATIO= 2.900000

                 INJECTOR  COMB END  THROAT     EXIT
 Pinj/P            1.0000   1.1219   1.9074   15.844
 P, BAR            101.33   90.316   53.123   6.3952
 T, K             1733.97  1709.66  1544.35  1161.49
 RHO, KG/CU M    1.1050e1 9.9894 0 6.5756 0 1.1250 0
 H, KJ/KG        -1032.43 -1087.54 -1541.11 -2963.39
 U, KJ/KG        -1949.37 -1991.65 -2348.99 -3531.87
 G, KJ/KG        -22055.0 -21864.6 -20309.2 -17078.7
 S, KJ/(KG)(K)    12.1239  12.1528  12.1528  12.1528

 M, (1/n)          15.723   15.722   15.894   16.988
 MW, MOL WT        15.723   15.722   15.894   16.169
 (dLV/dLP)t      -1.02701 -1.02697 -1.03655 -1.08313
 (dLV/dLT)p        1.2152   1.2185   1.3327   2.1700
 Cp, KJ/(KG)(K)    3.1881   3.2120   3.8321  10.6089
 GAMMAs            1.2787   1.2779   1.2593   1.1549
 SON VEL,M/SEC     1082.8   1074.9   1008.6    810.3
 MACH NUMBER        0.000    0.309    1.000    2.425

 PERFORMANCE PARAMETERS

 Ae/At                      2.0000   1.0000   3.0000
 CSTAR, M/SEC               1446.7   1446.7   1446.7
 CF                         0.2295   0.6972   1.3583
 Ivac, M/SEC                3055.5   1809.6   2254.5
 Isp, M/SEC                  332.0   1008.6   1965.2

 MOLE FRACTIONS

 *C              2.035-16 1.153-16 1.195-18 1.295-25
 *CH             2.362-14 1.429-14 2.870-16 2.554-22
 CH2             2.363-10 1.662-10 1.244-11 8.479-16
 CH3             6.5228-6 5.5302-6 2.0283-6 2.7308-8
 CH2OH           1.052 -9 8.128-10 1.850-10 6.873-13
 CH3O            7.064-11 5.254-11 8.973-12 1.323-14
 CH4             1.0863-2 1.0848-2 1.6436-2 2.5394-2
 CH3OH           1.5602-7 1.3724-7 9.9088-8 1.6714-8
 *CO             5.0076-1 5.0065-1 4.9803-1 4.1928-1
 *CO2            5.6656-3 5.7803-3 8.4857-3 3.9139-2
 COOH            3.325 -9 2.687 -9 7.850-10 1.285-11
 C2H             2.301-12 1.471-12 5.069-14 1.407-19
 C2H2,acetylene  1.1920-5 1.0068-5 3.4305-6 2.0527-8
 C2H2,vinylidene 2.097-10 1.482-10 1.294-11 7.187-16
 CH2CO,ketene    3.9814-6 3.4345-6 1.7315-6 5.5266-8
 O(CH)2O         2.236-11 1.744-11 5.151-12 3.874-14
 HO(CO)2OH       9.708-16 7.554-16 3.491-16 2.479-17
 C2H3,vinyl      3.380 -9 2.534 -9 4.090-10 1.644-13
 CH3CO,acetyl    3.499 -9 2.743 -9 7.878-10 3.314-12
 C2H4            2.1371-5 1.9349-5 1.5539-5 1.3249-6
 C2H4O,ethylen-o 2.157-12 1.674-12 5.236-13 2.607-15
 CH3CHO,ethanal  8.2225-8 7.1499-8 5.3223-8 4.9784-9
 CH3COOH         6.065-10 5.262-10 4.879-10 1.451-10
 OHCH2COOH       2.829-14 2.178-14 1.026-14 4.407-16
 C2H5            9.991 -9 8.024 -9 3.041 -9 1.751-11
 C2H6            1.8895-6 1.7541-6 2.3699-6 9.2508-7
 C2H5OH          1.981-10 1.648-10 1.219-10 8.692-12
 CH3OCH3         9.689-13 7.683-13 3.931-13 7.956-15
 C2O             1.203-11 8.265-12 5.292-13 1.939-17
 C3H3,1-propynl  1.786-13 1.187-13 8.572-15 1.084-19
 C3H3,2-propynl  2.595 -9 1.923 -9 3.183-10 6.958-14
 C3H4,allene     1.157 -8 9.336 -9 3.507 -9 1.115-11
 C3H4,propyne    3.048 -8 2.477 -8 9.806 -9 3.706-11
 C3H4,cyclo-     2.285-11 1.695-11 3.353-12 1.200-15
 C3H5,allyl      9.079-10 7.100-10 2.477-10 5.493-13
 C3H6,propylene  4.0609-8 3.4846-8 2.9043-8 1.0805-9
 C3H6,cyclo-     1.041-10 8.626-11 5.522-11 8.561-13
 C3H6O,propylox  3.341-15 2.473-15 8.452-16 2.194-18
 C3H6O,acetone   7.116-11 5.982-11 5.376-11 3.651-12
 C3H6O,propanal  3.316-11 2.687-11 1.822-11 4.821-13
 C3H7,n-propyl   4.514-12 3.382-12 1.180-12 1.977-15
 C3H7,i-propyl   4.119-12 3.124-12 1.194-12 2.703-15
 C3H8            8.782-10 7.624-10 9.657-10 1.171-10
 C3H8O,1propanol 8.253-14 6.437-14 4.539-14 1.053-15
 C3H8O,2propanol 8.645-14 6.827-14 5.292-14 1.721-15
 C3O2            1.300 -9 1.034 -9 2.873-10 1.109-12
 C4H2,butadiyne  1.194-10 8.495-11 9.868-12 3.662-16
 C4H4,1,3-cyclo- 8.597-15 5.879-15 7.012-16 2.215-20
 C4H6,butadiene  2.547-10 2.028-10 1.079-10 4.480-13
 C4H6,1butyne    1.535-11 1.166-11 4.305-12 4.963-15
 C4H6,2butyne    1.490-11 1.159-11 5.132-12 1.088-14
 C4H6,cyclo-     4.010-13 3.075-13 1.226-13 1.881-16
 C4H8,1-butene   1.752-11 1.406-11 1.102-11 1.284-13
 C4H8,cis2-buten 7.699-12 6.250-12 5.327-12 8.169-14
 C4H8,tr2-butene 8.644-12 7.017-12 5.985-12 9.286-14
 C4H8,isobutene  9.931-12 8.105-12 7.208-12 1.288-13
 C4H8,cyclo-     6.844-15 5.344-15 3.396-15 1.988-17
 C4H9,n-butyl    4.960-15 3.517-15 1.259-15 8.934-19
 C4H9,i-butyl    2.912-15 2.082-15 7.939-16 7.025-19
 C4H9,s-butyl    3.297-15 2.342-15 8.483-16 6.175-19
 C4H9,t-butyl    8.974-16 6.542-16 2.887-16 4.074-19
 C4H10,n-butane  4.182-13 3.391-13 3.994-13 1.468-14
 C4H10,isobutane 1.440-13 1.177-13 1.476-13 6.752-15
 C5H6,1,3cyclo-  2.668-12 2.141-12 1.358-12 5.023-15
 C5H8,cyclo-     3.676-14 2.923-14 2.399-14 1.669-16
 C5H10,1-pentene 6.314-15 4.751-15 3.544-15 1.316-17
 C5H10,cyclo-    1.395-16 1.111-16 1.280-16 2.222-18
 C5H12,n-pentane 1.713-16 1.296-16 1.410-16 1.572-18
 C5H12,i-pentane 1.669-16 1.263-16 1.387-16 1.698-18
 C6H2            1.271-15 7.622-16 3.046-17 7.287-24
 C6H5,phenyl     1.903-15 1.358-15 3.339-16 2.695-20
 C6H6            1.019-11 8.842-12 1.148-11 2.388-13
 C6H5OH,phenol   6.761-15 5.392-15 4.621-15 3.336-17
 C7H7,benzyl     7.700-16 5.673-16 2.797-16 9.617-20
 C7H8            2.797-14 2.304-14 3.129-14 2.915-16
 C8H8,styrene    3.028-16 2.309-16 1.963-16 1.847-19
 *H              1.3654-5 1.1576-5 2.7391-6 2.3506-8
 HCO             4.889 -7 3.977 -7 9.663 -8 5.852-10
 HCCO            2.718-10 1.979-10 2.323-11 5.856-15
 HO2             1.451-16 9.157-17 3.592-18 1.273-22
 *H2             4.6398-1 4.6414-1 4.5549-1 4.1971-1
 HCHO,formaldehy 1.0033-5 8.9787-6 5.3268-6 5.9883-7
 HCOOH           4.1297-7 3.6971-7 2.7887-7 1.0712-7
 H2O             1.8659-2 1.8520-2 2.1523-2 4.8246-2
 H2O2            1.450-14 1.001-14 9.198-16 5.207-19
 *O              7.172-13 4.848-13 2.177-14 1.026-18
 *OH             3.564 -8 2.824 -8 5.012 -9 2.160-11
 *O2             1.288-14 8.674-15 4.749-16 6.054-20
 C(gr)           0.0000 0 0.0000 0 0.0000 0 4.8227-2

  * THERMODYNAMIC PROPERTIES FITTED TO 20000.K
