
 *******************************************************************************

         NASA-GLENN CHEMICAL EQUILIBRIUM PROGRAM CEA2, MAY 21, 2004
                   BY  BONNIE MCBRIDE AND SANFORD GORDON
      REFS: NASA RP-1311, PART I, 1994 AND NASA RP-1311, PART II, 1996

 *******************************************************************************



 problem    phi,eq.ratio=0.5,0.6,0.7,0.8,0.9,1,1.1,1.2,1.3,1.4,1.5,1.6,1.7,1.8,1.
 9,2,
       uv   rho,kg/m**3=1.1523,  t,k=3800
 react
   fuel=C2H4 moles=1 t,k=300
   oxid=O2 moles=3 t,k=300
   oxid=N2 moles=11.2857 t,k=300
 output
      trace=1e-16 siunits short
 end




         THERMODYNAMIC EQUILIBRIUM COMBUSTION PROPERTIES AT ASSIGNED

                                     VOLUME

 CASE =                

             REACTANT                       MOLES         ENERGY      TEMP
                                                         KJ/KG-MOL      K
 FUEL        C2H4                         1.0000000     50085.152    300.000
 OXIDANT     O2                           3.0000000     -2439.995    300.000
 OXIDANT     N2                          11.2857000     -2440.472    300.000

 O/F=   29.38330  %FUEL=  3.291282  R,EQ.RATIO= 0.500000  PHI,EQ.RATIO= 0.500000

 THERMODYNAMIC PROPERTIES

 P, BAR            6.4743
 T, K             1947.27
 RHO, KG/CU M    1.1523 0
 H, KJ/KG          538.82
 U, KJ/KG         -23.042
 G, KJ/KG        -16279.9
 S, KJ/(KG)(K)     8.6371

 M, (1/n)          28.816
 (dLV/dLP)t      -1.00009
 (dLV/dLT)p        1.0030
 Cp, KJ/(KG)(K)    1.4177
 GAMMAs            1.2574
 SON VEL,M/SEC      840.5

 MOLE FRACTIONS

 *CO             7.0804-5
 *CO2            6.7545-2
 COOH            2.280-10
 *H              1.7735-6
 HCN             7.506-16
 HCO             3.239-13
 HNCO            9.020-13
 HNO             1.5544-8
 HNO2            2.8488-7
 HNO3            1.556-10
 HO2             1.7609-6
 *H2             1.6066-5
 HCHO,formaldehy 3.059-15
 HCOOH           1.241-11
 H2O             6.7218-2
 H2O2            8.4231-8
 *N              1.414-10
 NCO             4.374-14
 *NH             1.025-11
 NH2             3.080-12
 NH3             8.061-12
 NH2OH           9.542-15
 *NO             4.4527-3
 NO2             1.4821-5
 NO3             3.467-11
 *N2             7.6086-1
 N2H2            1.655-16
 N2O             6.3087-7
 N2O3            8.910-13
 N2O4            1.236-16
 N3              1.583-15
 N3H             1.811-16
 *O              5.4572-5
 *OH             7.5959-4
 *O2             9.9007-2
 O3              3.6862-9

  * THERMODYNAMIC PROPERTIES FITTED TO 20000.K









         THERMODYNAMIC EQUILIBRIUM COMBUSTION PROPERTIES AT ASSIGNED

                                     VOLUME

 CASE =                

             REACTANT                       MOLES         ENERGY      TEMP
                                                         KJ/KG-MOL      K
 FUEL        C2H4                         1.0000000     50085.152    300.000
 OXIDANT     O2                           3.0000000     -2439.995    300.000
 OXIDANT     N2                          11.2857000     -2440.472    300.000

 O/F=   24.48608  %FUEL=  3.923710  R,EQ.RATIO= 0.600000  PHI,EQ.RATIO= 0.600000

 THERMODYNAMIC PROPERTIES

 P, BAR            7.2618
 T, K             2182.05
 RHO, KG/CU M    1.1523 0
 H, KJ/KG          618.98
 U, KJ/KG         -11.216
 G, KJ/KG        -18575.8
 S, KJ/(KG)(K)     8.7966

 M, (1/n)          28.789
 (dLV/dLP)t      -1.00038
 (dLV/dLT)p        1.0119
 Cp, KJ/(KG)(K)    1.5390
 GAMMAs            1.2372
 SON VEL,M/SEC      883.0

 MOLE FRACTIONS

 *CN             5.989-16
 *CO             5.6917-4
 *CO2            7.9963-2
 COOH            2.4219-9
 *H              1.9659-5
 HCN             9.773-14
 HCO             1.957-11
 HNC             6.735-15
 HNCO            2.047-11
 HNO             7.3704-8
 HNO2            3.8813-7
 HNO3            1.420-10
 HO2             3.9489-6
 *H2             1.0819-4
 HCHO,formaldehy 1.830-13
 HCOOH           1.257-10
 H2O             7.9319-2
 H2O2            1.9284-7
 *N              3.2319-9
 NCO             1.969-12
 *NH             2.843-10
 NH2             7.437-11
 NH3             1.089-10
 NH2OH           1.255-13
 *NO             7.1596-3
 NO2             1.5348-5
 NO3             4.517-11
 *N2             7.5380-1
 N2H2            5.139-15
 N2O             1.0541-6
 N2O3            1.398-12
 N2O4            1.161-16
 N3              3.141-14
 N3H             3.780-15
 *O              2.4745-4
 *OH             2.1868-3
 *O2             7.6607-2
 O3              7.1456-9

  * THERMODYNAMIC PROPERTIES FITTED TO 20000.K









         THERMODYNAMIC EQUILIBRIUM COMBUSTION PROPERTIES AT ASSIGNED

                                     VOLUME

 CASE =                

             REACTANT                       MOLES         ENERGY      TEMP
                                                         KJ/KG-MOL      K
 FUEL        C2H4                         1.0000000     50085.152    300.000
 OXIDANT     O2                           3.0000000     -2439.995    300.000
 OXIDANT     N2                          11.2857000     -2440.472    300.000

 O/F=   20.98807  %FUEL=  4.547920  R,EQ.RATIO= 0.700000  PHI,EQ.RATIO= 0.700000

 THERMODYNAMIC PROPERTIES

 P, BAR            7.9503
 T, K             2383.65
 RHO, KG/CU M    1.1523 0
 H, KJ/KG          690.41
 U, KJ/KG         0.45680
 G, KJ/KG        -20616.3
 S, KJ/(KG)(K)     8.9387

 M, (1/n)          28.725
 (dLV/dLP)t      -1.00125
 (dLV/dLT)p        1.0352
 Cp, KJ/(KG)(K)    1.7530
 GAMMAs            1.2132
 SON VEL,M/SEC      914.9

 MOLE FRACTIONS

 *CN             4.247-14
 *CO             2.6277-3
 *CO2            9.0509-2
 COOH            1.3392-8
 *H              1.1060-4
 HCN             3.601-12
 HCO             3.902-10
 HNC             3.313-13
 HNCO            2.069-10
 HNO             2.1549-7
 HNO2            4.4051-7
 HNO3            1.141-10
 HO2             6.3126-6
 *H2             4.4812-4
 HCHO,formaldehy 3.813-12
 HCOOH           7.094-10
 H2O             9.0407-2
 H2O2            3.2800-7
 *N              2.8896-8
 NCO             3.073-11
 *NH             3.0438-9
 NH2             7.581-10
 NH3             7.749-10
 NH2OH           8.269-13
 *NO             9.2702-3
 NO2             1.3678-5
 NO3             4.439-11
 *N2             7.4615-1
 N2H2            6.355-14
 N2O             1.4161-6
 N2O3            1.573-12
 N3              2.568-13
 N3H             3.360-14
 *O              6.6228-4
 *OH             4.4456-3
 *O2             5.5342-2
 O3              9.3268-9

  * THERMODYNAMIC PROPERTIES FITTED TO 20000.K









         THERMODYNAMIC EQUILIBRIUM COMBUSTION PROPERTIES AT ASSIGNED

                                     VOLUME

 CASE =                

             REACTANT                       MOLES         ENERGY      TEMP
                                                         KJ/KG-MOL      K
 FUEL        C2H4                         1.0000000     50085.152    300.000
 OXIDANT     O2                           3.0000000     -2439.995    300.000
 OXIDANT     N2                          11.2857000     -2440.472    300.000

 O/F=   18.36456  %FUEL=  5.164072  R,EQ.RATIO= 0.800000  PHI,EQ.RATIO= 0.800000

 THERMODYNAMIC PROPERTIES

 P, BAR            8.5208
 T, K             2543.52
 RHO, KG/CU M    1.1523 0
 H, KJ/KG          751.44
 U, KJ/KG          11.979
 G, KJ/KG        -22311.8
 S, KJ/(KG)(K)     9.0675

 M, (1/n)          28.599
 (dLV/dLP)t      -1.00305
 (dLV/dLT)p        1.0798
 Cp, KJ/(KG)(K)    2.0958
 GAMMAs            1.1886
 SON VEL,M/SEC      937.5

 MOLE FRACTIONS

 *C              6.843-16
 CH2             1.132-16
 CH3             2.075-16
 CH2OH           4.287-16
 *CN             9.103-13
 *CO             8.0068-3
 *CO2            9.7285-2
 COOH            4.4793-8
 *H              3.7659-4
 HCN             5.236-11
 HCO             3.4045-9
 HNC             5.860-12
 HNCO            1.1419-9
 HNO             4.3256-7
 HNO2            4.2385-7
 HNO3            7.959-11
 HO2             7.6418-6
 *H2             1.3077-3
 HCHO,formaldehy 3.633-11
 HCOOH           2.5520-9
 H2O             1.0033-1
 H2O2            4.3815-7
 *N              1.2767-7
 NCO             2.155-10
 *NH             1.6060-8
 NH2             4.0937-9
 NH3             3.4688-9
 NH2OH           3.229-12
 *NO             1.0051-2
 NO2             1.0545-5
 NO3             3.354-11
 *N2             7.3765-1
 N2H2            3.950-13
 NH2NO2          1.268-16
 N2O             1.5829-6
 N2O3            1.306-12
 N3              1.073-12
 N3H             1.572-13
 *O              1.1763-3
 *OH             6.9139-3
 *O2             3.6876-2
 O3              8.6016-9

  * THERMODYNAMIC PROPERTIES FITTED TO 20000.K









         THERMODYNAMIC EQUILIBRIUM COMBUSTION PROPERTIES AT ASSIGNED

                                     VOLUME

 CASE =                

             REACTANT                       MOLES         ENERGY      TEMP
                                                         KJ/KG-MOL      K
 FUEL        C2H4                         1.0000000     50085.152    300.000
 OXIDANT     O2                           3.0000000     -2439.995    300.000
 OXIDANT     N2                          11.2857000     -2440.472    300.000

 O/F=   16.32406  %FUEL=  5.772320  R,EQ.RATIO= 0.900000  PHI,EQ.RATIO= 0.900000

 THERMODYNAMIC PROPERTIES

 P, BAR            8.9687
 T, K             2658.52
 RHO, KG/CU M    1.1523 0
 H, KJ/KG          801.68
 U, KJ/KG          23.352
 G, KJ/KG        -23619.4
 S, KJ/(KG)(K)     9.1860

 M, (1/n)          28.400
 (dLV/dLP)t      -1.00544
 (dLV/dLT)p        1.1362
 Cp, KJ/(KG)(K)    2.5014
 GAMMAs            1.1705
 SON VEL,M/SEC      954.5

 MOLE FRACTIONS

 *C              1.057-14
 *CH             1.462-15
 CH2             2.103-15
 CH3             3.607-15
 CH2OH           4.252-15
 CH3O            7.875-16
 CH4             7.158-16
 CH3OH           1.639-16
 *CN             8.015-12
 *CO             1.7853-2
 *CO2            9.9019-2
 COOH            1.0153-7
 OCCN            2.260-16
 C2O             1.110-15
 *H              8.8362-4
 HCN             3.846-10
 HCO             1.6028-8
 HNC             4.882-11
 HNCO            4.0077-9
 HNO             6.4594-7
 HNO2            3.5100-7
 HNO3            4.784-11
 HO2             7.3297-6
 *H2             2.9721-3
 HCHO,formaldehy 1.940-10
 HCOOH           6.5011-9
 H2O             1.0909-1
 H2O2            4.7955-7
 *N              3.3106-7
 NCO             8.245-10
 *NH             4.9979-8
 NH2             1.3852-8
 NH3             1.1142-8
 NH2OH           8.498-12
 *NO             9.3924-3
 NO2             7.0647-6
 NO3             1.981-11
 *N2             7.2807-1
 NCN             4.376-16
 N2H2            1.470-12
 NH2NO2          1.888-16
 N2O             1.5122-6
 N2O3            8.213-13
 N3              2.689-12
 N3H             4.540-13
 *O              1.5115-3
 *OH             8.7252-3
 *O2             2.2465-2
 O3              5.8057-9

  * THERMODYNAMIC PROPERTIES FITTED TO 20000.K









         THERMODYNAMIC EQUILIBRIUM COMBUSTION PROPERTIES AT ASSIGNED

                                     VOLUME

 CASE =                

             REACTANT                       MOLES         ENERGY      TEMP
                                                         KJ/KG-MOL      K
 FUEL        C2H4                         1.0000000     50085.152    300.000
 OXIDANT     O2                           3.0000000     -2439.995    300.000
 OXIDANT     N2                          11.2857000     -2440.472    300.000

 O/F=   14.69165  %FUEL=  6.372816  R,EQ.RATIO= 1.000000  PHI,EQ.RATIO= 1.000000

 THERMODYNAMIC PROPERTIES

 P, BAR            9.3047
 T, K             2732.11
 RHO, KG/CU M    1.1523 0
 H, KJ/KG          842.07
 U, KJ/KG          34.581
 G, KJ/KG        -24556.2
 S, KJ/(KG)(K)     9.2962

 M, (1/n)          28.132
 (dLV/dLP)t      -1.00719
 (dLV/dLT)p        1.1758
 Cp, KJ/(KG)(K)    2.7816
 GAMMAs            1.1624
 SON VEL,M/SEC      968.8

 MOLE FRACTIONS

 *C              6.980-14
 *CH             1.174-14
 CH2             1.842-14
 CH3             3.313-14
 CH2OH           2.405-14
 CH3O            4.714-15
 CH4             7.178-15
 CH3OH           1.048-15
 *CN             3.784-11
 *CO             3.2003-2
 *CO2            9.5810-2
 COOH            1.7259-7
 CH2CO,ketene    5.507-16
 HO(CO)2OH       1.592-16
 OCCN            1.748-15
 C2O             9.378-15
 *H              1.5920-3
 HCN             1.7775-9
 HCO             4.8910-8
 HCCO            3.674-16
 HNC             2.432-10
 HNCO            1.0268-8
 HNO             7.6567-7
 HNO2            2.5185-7
 HNO3            2.442-11
 HO2             5.7407-6
 *H2             5.7272-3
 HCHO,formaldehy 6.964-10
 HCOOH           1.2927-8
 H2O             1.1661-1
 H2O2            4.4307-7
 *N              5.8034-7
 NCO             2.0391-9
 *NH             1.0648-7
 NH2             3.3834-8
 NH3             2.8773-8
 NH2OH           1.679-11
 *NO             7.7123-3
 NO2             4.0965-6
 NO3             9.177-12
 *N2             7.1737-1
 NCN             2.289-15
 N2H2            3.803-12
 NH2NO2          2.096-16
 N2O             1.2587-6
 N2O3            3.947-13
 N3              4.616-12
 N3H             9.251-13
 *O              1.5013-3
 *OH             9.3463-3
 *O2             1.2310-2
 O3              2.9193-9

  * THERMODYNAMIC PROPERTIES FITTED TO 20000.K









         THERMODYNAMIC EQUILIBRIUM COMBUSTION PROPERTIES AT ASSIGNED

                                     VOLUME

 CASE =                

             REACTANT                       MOLES         ENERGY      TEMP
                                                         KJ/KG-MOL      K
 FUEL        C2H4                         1.0000000     50085.152    300.000
 OXIDANT     O2                           3.0000000     -2439.995    300.000
 OXIDANT     N2                          11.2857000     -2440.472    300.000

 O/F=   13.35605  %FUEL=  6.965706  R,EQ.RATIO= 1.100000  PHI,EQ.RATIO= 1.100000

 THERMODYNAMIC PROPERTIES

 P, BAR            9.5407
 T, K             2768.99
 RHO, KG/CU M    1.1523 0
 H, KJ/KG          873.64
 U, KJ/KG          45.668
 G, KJ/KG        -25153.3
 S, KJ/(KG)(K)     9.3994

 M, (1/n)          27.806
 (dLV/dLP)t      -1.00712
 (dLV/dLT)p        1.1723
 Cp, KJ/(KG)(K)    2.7659
 GAMMAs            1.1648
 SON VEL,M/SEC      982.0

 MOLE FRACTIONS

 *C              2.516-13
 *CH             5.251-14
 CH2             9.702-14
 CH3             2.017-13
 CH2OH           9.322-14
 CH3O            1.878-14
 CH4             5.152-14
 CH3OH           4.866-15
 *CN             1.159-10
 *CO             4.9508-2
 *CO2            8.8580-2
 COOH            2.3637-7
 CH2CO,ketene    3.827-15
 HO(CO)2OH       2.595-16
 OCCN            7.990-15
 C2O             4.479-14
 *H              2.3698-3
 HCN             6.0889-9
 HCO             1.1040-7
 HCCO            2.186-15
 HNC             8.638-10
 HNCO            2.1287-8
 HNO             7.4852-7
 HNO2            1.5543-7
 HNO3            1.028-11
 HO2             3.6989-6
 *H2             9.9453-3
 HCHO,formaldehy 1.9198-9
 HCOOH           2.1567-8
 H2O             1.2260-1
 H2O2            3.4915-7
 *N              7.5400-7
 NCO             3.6796-9
 *NH             1.7163-7
 NH2             6.5788-8
 NH3             6.4913-8
 NH2OH           2.677-11
 *NO             5.5920-3
 NO2             2.0200-6
 NO3             3.266-12
 *N2             7.0558-1
 NCN             7.362-15
 N2H2            7.598-12
 NH2NO2          1.802-16
 N2O             9.1783-7
 N2O3            1.428-13
 N3              5.926-12
 N3H             1.457-12
 *O              1.1943-3
 *OH             8.7080-3
 *O2             5.9132-3
 O3              1.0826-9

  * THERMODYNAMIC PROPERTIES FITTED TO 20000.K









         THERMODYNAMIC EQUILIBRIUM COMBUSTION PROPERTIES AT ASSIGNED

                                     VOLUME

 CASE =                

             REACTANT                       MOLES         ENERGY      TEMP
                                                         KJ/KG-MOL      K
 FUEL        C2H4                         1.0000000     50085.152    300.000
 OXIDANT     O2                           3.0000000     -2439.995    300.000
 OXIDANT     N2                          11.2857000     -2440.472    300.000

 O/F=   12.24304  %FUEL=  7.551135  R,EQ.RATIO= 1.200000  PHI,EQ.RATIO= 1.200000

 THERMODYNAMIC PROPERTIES

 P, BAR            9.6840
 T, K             2773.05
 RHO, KG/CU M    1.1523 0
 H, KJ/KG          897.03
 U, KJ/KG          56.615
 G, KJ/KG        -25436.9
 S, KJ/(KG)(K)     9.4964

 M, (1/n)          27.435
 (dLV/dLP)t      -1.00552
 (dLV/dLT)p        1.1333
 Cp, KJ/(KG)(K)    2.5014
 GAMMAs            1.1766
 SON VEL,M/SEC      994.4

 MOLE FRACTIONS

 *C              5.713-13
 *CH             1.517-13
 CH2             3.544-13
 CH3             9.297-13
 CH2OH           2.754-13
 CH3O            5.565-14
 CH4             3.003-13
 CH3OH           1.822-14
 *CN             2.581-10
 CNN             1.184-16
 *CO             6.9050-2
 *CO2            7.8644-2
 COOH            2.7205-7
 C2H2,acetylene  6.308-16
 CH2CO,ketene    1.940-14
 O(CH)2O         2.606-16
 HO(CO)2OH       3.428-16
 OCCN            2.502-14
 C2N2            3.011-16
 C2O             1.412-13
 C3O2            2.259-16
 *H              3.0365-3
 HCN             1.7048-8
 HCO             1.9929-7
 HCCO            8.768-15
 HNC             2.4279-9
 HNCO            3.7991-8
 HNO             6.1545-7
 HNO2            8.1832-8
 HNO3            3.497-12
 HO2             1.9609-6
 *H2             1.6099-2
 HCHO,formaldehy 4.3999-9
 HCOOH           3.1506-8
 H2O             1.2651-1
 H2O2            2.3502-7
 *N              7.6459-7
 NCO             5.2069-9
 *NH             2.2134-7
 NH2             1.0757-7
 NH3             1.3401-7
 NH2OH           3.582-11
 *NO             3.5829-3
 NO2             8.3549-7
 NO3             8.775-13
 *N2             6.9272-1
 NCN             1.644-14
 N2H2            1.243-11
 NH2NO2          1.219-16
 N2H4            2.147-16
 N2O             5.8715-7
 N2O3            3.836-14
 N3              5.975-12
 N3H             1.865-12
 *O              7.7463-4
 *OH             7.1383-3
 *O2             2.4441-3
 O3              2.929-10

  * THERMODYNAMIC PROPERTIES FITTED TO 20000.K









         THERMODYNAMIC EQUILIBRIUM COMBUSTION PROPERTIES AT ASSIGNED

                                     VOLUME

 CASE =                

             REACTANT                       MOLES         ENERGY      TEMP
                                                         KJ/KG-MOL      K
 FUEL        C2H4                         1.0000000     50085.152    300.000
 OXIDANT     O2                           3.0000000     -2439.995    300.000
 OXIDANT     N2                          11.2857000     -2440.472    300.000

 O/F=   11.30127  %FUEL=  8.129242  R,EQ.RATIO= 1.300000  PHI,EQ.RATIO= 1.300000

 THERMODYNAMIC PROPERTIES

 P, BAR            9.7462
 T, K             2749.74
 RHO, KG/CU M    1.1523 0
 H, KJ/KG          913.23
 U, KJ/KG          67.426
 G, KJ/KG        -25450.2
 S, KJ/(KG)(K)     9.5876

 M, (1/n)          27.031
 (dLV/dLP)t      -1.00374
 (dLV/dLT)p        1.0900
 Cp, KJ/(KG)(K)    2.1999
 GAMMAs            1.1939
 SON VEL,M/SEC     1004.9

 MOLE FRACTIONS

 *C              8.976-13
 *CH             3.091-13
 CH2             9.680-13
 CH3             3.445-12
 CH2OH           6.540-13
 CH3O            1.299-13
 CH4             1.490-12
 CH3OH           5.736-14
 *CN             4.471-10
 CNN             1.886-16
 *CO             8.9033-2
 *CO2            6.7626-2
 COOH            2.7158-7
 C2H2,acetylene  3.753-15
 CH2CO,ketene    7.717-14
 O(CH)2O         6.616-16
 HO(CO)2OH       3.813-16
 OCCN            5.843-14
 C2N2            1.112-15
 C2O             3.223-13
 C3O2            7.349-16
 *H              3.4375-3
 HCN             4.0894-8
 HCO             3.0115-7
 HCCO            2.589-14
 HNC             5.6938-9
 HNCO            6.0298-8
 HNO             4.3614-7
 HNO2            3.7371-8
 HNO3            9.800-13
 HO2             8.7527-7
 *H2             2.4575-2
 HCHO,formaldehy 8.7108-9
 HCOOH           4.1273-8
 H2O             1.2775-1
 H2O2            1.3733-7
 *N              6.3205-7
 NCO             6.0704-9
 *NH             2.3738-7
 NH2             1.5233-7
 NH3             2.5675-7
 NH2OH           4.120-11
 *NO             2.0620-3
 NO2             2.9571-7
 NO3             1.840-13
 *N2             6.7897-1
 NCN             2.751-14
 N2H2            1.724-11
 N2H4            4.790-16
 N2O             3.3529-7
 N2O3            7.929-15
 N3              4.935-12
 N3H             2.013-12
 *O              4.2239-4
 *OH             5.2355-3
 *O2             8.8310-4
 O3              6.010-11

  * THERMODYNAMIC PROPERTIES FITTED TO 20000.K









         THERMODYNAMIC EQUILIBRIUM COMBUSTION PROPERTIES AT ASSIGNED

                                     VOLUME

 CASE =                

             REACTANT                       MOLES         ENERGY      TEMP
                                                         KJ/KG-MOL      K
 FUEL        C2H4                         1.0000000     50085.152    300.000
 OXIDANT     O2                           3.0000000     -2439.995    300.000
 OXIDANT     N2                          11.2857000     -2440.472    300.000

 O/F=   10.49404  %FUEL=  8.700164  R,EQ.RATIO= 1.400000  PHI,EQ.RATIO= 1.400000

 THERMODYNAMIC PROPERTIES

 P, BAR            9.7473
 T, K             2707.38
 RHO, KG/CU M    1.1523 0
 H, KJ/KG          924.00
 U, KJ/KG          78.102
 G, KJ/KG        -25265.8
 S, KJ/(KG)(K)     9.6735

 M, (1/n)          26.611
 (dLV/dLP)t      -1.00249
 (dLV/dLT)p        1.0595
 Cp, KJ/(KG)(K)    1.9848
 GAMMAs            1.2110
 SON VEL,M/SEC     1012.1

 MOLE FRACTIONS

 *C              1.063-12
 *CH             4.782-13
 CH2             2.080-12
 CH3             1.051-11
 CH2OH           1.289-12
 CH3O            2.480-13
 CH4             6.308-12
 CH3OH           1.539-13
 *CN             6.367-10
 CNN             2.304-16
 *CO             1.0798-1
 *CO2            5.7076-2
 COOH            2.4353-7
 C2H             1.882-16
 C2H2,acetylene  1.735-14
 CH2CO,ketene    2.495-13
 O(CH)2O         1.370-15
 HO(CO)2OH       3.720-16
 OCCN            1.084-13
 C2N2            3.278-15
 C2O             5.712-13
 C3O2            1.884-15
 *H              3.5267-3
 HCN             8.5913-8
 HCO             3.9499-7
 HCCO            5.969-14
 HNC             1.1469-8
 HNCO            8.6860-8
 HNO             2.7739-7
 HNO2            1.5513-8
 HNO3            2.424-13
 HO2             3.4741-7
 *H2             3.5401-2
 HCHO,formaldehy 1.5207-8
 HCOOH           4.9410-8
 H2O             1.2612-1
 H2O2            7.2433-8
 *N              4.4967-7
 NCO             6.1174-9
 *NH             2.2070-7
 NH2             1.9123-7
 NH3             4.5547-7
 NH2OH           4.182-11
 *NO             1.1057-3
 NO2             9.4891-8
 NO3             3.298-14
 *N2             6.6474-1
 NCN             3.682-14
 N2H2            2.085-11
 N2H4            9.102-16
 N2O             1.7762-7
 N2O3            1.385-15
 N3              3.521-12
 N3H             1.902-12
 *O              2.0441-4
 *OH             3.5411-3
 *O2             2.9382-4
 O3              1.032-11

  * THERMODYNAMIC PROPERTIES FITTED TO 20000.K









         THERMODYNAMIC EQUILIBRIUM COMBUSTION PROPERTIES AT ASSIGNED

                                     VOLUME

 CASE =                

             REACTANT                       MOLES         ENERGY      TEMP
                                                         KJ/KG-MOL      K
 FUEL        C2H4                         1.0000000     50085.152    300.000
 OXIDANT     O2                           3.0000000     -2439.995    300.000
 OXIDANT     N2                          11.2857000     -2440.472    300.000

 O/F=    9.79443  %FUEL=  9.264034  R,EQ.RATIO= 1.500000  PHI,EQ.RATIO= 1.500000

 THERMODYNAMIC PROPERTIES

 P, BAR            9.7093
 T, K             2654.23
 RHO, KG/CU M    1.1523 0
 H, KJ/KG          931.25
 U, KJ/KG          88.646
 G, KJ/KG        -24959.5
 S, KJ/(KG)(K)     9.7545

 M, (1/n)          26.191
 (dLV/dLP)t      -1.00173
 (dLV/dLT)p        1.0409
 Cp, KJ/(KG)(K)    1.8555
 GAMMAs            1.2250
 SON VEL,M/SEC     1016.0

 MOLE FRACTIONS

 *C              1.030-12
 *CH             6.022-13
 CH2             3.687-12
 CH3             2.698-11
 CH2OH           2.178-12
 CH3O            4.020-13
 CH4             2.278-11
 CH3OH           3.565-13
 *CN             7.839-10
 CNN             2.327-16
 *CO             1.2509-1
 *CO2            4.7894-2
 COOH            2.0312-7
 C2H             4.440-16
 C2H2,acetylene  6.445-14
 CH2CO,ketene    6.751-13
 O(CH)2O         2.413-15
 HO(CO)2OH       3.315-16
 CH3CO,acetyl    1.579-16
 OCCN            1.689-13
 C2N2            8.051-15
 C2O             8.387-13
 C3O2            4.012-15
 *H              3.3636-3
 HCN             1.6111-7
 HCO             4.6538-7
 HCCO            1.133-13
 HNC             2.0362-8
 HNCO            1.1572-7
 HNO             1.6507-7
 HNO2            6.1499-9
 HNO3            5.692-14
 HO2             1.2981-7
 *H2             4.8207-2
 HCHO,formaldehy 2.3870-8
 HCOOH           5.5125-8
 H2O             1.2195-1
 H2O2            3.5978-8
 *N              2.9035-7
 NCO             5.5763-9
 *NH             1.8535-7
 NH2             2.1800-7
 NH3             7.4765-7
 NH2OH           3.855-11
 *NO             5.7351-4
 NO2             2.9304-8
 NO3             5.542-15
 *N2             6.5045-1
 NCN             4.186-14
 N2H2            2.268-11
 N2H4            1.502-15
 N2O             9.0796-8
 N2O3            2.256-16
 N3              2.286-12
 N3H             1.635-12
 *O              9.2720-5
 *OH             2.2796-3
 *O2             9.5009-5
 O3              1.642-12

  * THERMODYNAMIC PROPERTIES FITTED TO 20000.K









         THERMODYNAMIC EQUILIBRIUM COMBUSTION PROPERTIES AT ASSIGNED

                                     VOLUME

 CASE =                

             REACTANT                       MOLES         ENERGY      TEMP
                                                         KJ/KG-MOL      K
 FUEL        C2H4                         1.0000000     50085.152    300.000
 OXIDANT     O2                           3.0000000     -2439.995    300.000
 OXIDANT     N2                          11.2857000     -2440.472    300.000

 O/F=    9.18228  %FUEL=  9.820981  R,EQ.RATIO= 1.600000  PHI,EQ.RATIO= 1.600000

 THERMODYNAMIC PROPERTIES

 P, BAR            9.6481
 T, K             2595.97
 RHO, KG/CU M    1.1523 0
 H, KJ/KG          936.35
 U, KJ/KG          99.061
 G, KJ/KG        -24584.9
 S, KJ/(KG)(K)     9.8311

 M, (1/n)          25.779
 (dLV/dLP)t      -1.00126
 (dLV/dLT)p        1.0296
 Cp, KJ/(KG)(K)    1.7796
 GAMMAs            1.2359
 SON VEL,M/SEC     1017.2

 MOLE FRACTIONS

 *C              8.674-13
 *CH             6.525-13
 CH2             5.627-12
 CH3             5.995-11
 CH2OH           3.252-12
 CH3O            5.729-13
 CH4             7.134-11
 CH3OH           7.285-13
 *CN             8.692-10
 CNN             2.058-16
 *CO             1.4020-1
 *CO2            4.0288-2
 COOH            1.6170-7
 C2H             8.602-16
 C2H2,acetylene  2.000-13
 C2H2,vinylidene 2.130-16
 CH2CO,ketene    1.582-12
 O(CH)2O         3.752-15
 HO(CO)2OH       2.785-16
 CH3CN           1.147-16
 CH3CO,acetyl    4.016-16
 OCCN            2.320-13
 C2N2            1.717-14
 C2O             1.075-12
 C3O2            7.445-15
 *H              3.0426-3
 HCN             2.7548-7
 HCO             5.0689-7
 HCCO            1.857-13
 HNC             3.2702-8
 HNCO            1.4518-7
 HNO             9.4554-8
 HNO2            2.4005-9
 HNO3            1.324-14
 HO2             4.7322-8
 *H2             6.2436-2
 HCHO,formaldehy 3.4405-8
 HCOOH           5.8344-8
 H2O             1.1582-1
 H2O2            1.7308-8
 *N              1.7653-7
 NCO             4.7565-9
 *NH             1.4504-7
 NH2             2.3057-7
 NH3             1.1435-6
 NH2OH           3.308-11
 *NO             2.9439-4
 NO2             9.0195-9
 NO3             9.228-16
 *N2             6.3641-1
 NCN             4.241-14
 N2H2            2.277-11
 N2H4            2.206-15
 N2O             4.5879-8
 N3              1.401-12
 N3H             1.316-12
 *O              4.0809-5
 *OH             1.4266-3
 *O2             3.0802-5
 O3              2.570-13

  * THERMODYNAMIC PROPERTIES FITTED TO 20000.K









         THERMODYNAMIC EQUILIBRIUM COMBUSTION PROPERTIES AT ASSIGNED

                                     VOLUME

 CASE =                

             REACTANT                       MOLES         ENERGY      TEMP
                                                         KJ/KG-MOL      K
 FUEL        C2H4                         1.0000000     50085.152    300.000
 OXIDANT     O2                           3.0000000     -2439.995    300.000
 OXIDANT     N2                          11.2857000     -2440.472    300.000

 O/F=    8.64215  %FUEL= 10.371134  R,EQ.RATIO= 1.700000  PHI,EQ.RATIO= 1.700000

 THERMODYNAMIC PROPERTIES

 P, BAR            9.5727
 T, K             2535.67
 RHO, KG/CU M    1.1523 0
 H, KJ/KG          940.10
 U, KJ/KG          109.35
 G, KJ/KG        -24172.4
 S, KJ/(KG)(K)     9.9037

 M, (1/n)          25.378
 (dLV/dLP)t      -1.00095
 (dLV/dLT)p        1.0221
 Cp, KJ/(KG)(K)    1.7336
 GAMMAs            1.2446
 SON VEL,M/SEC     1016.8

 MOLE FRACTIONS

 *C              6.615-13
 *CH             6.331-13
 CH2             7.660-12
 CH3             1.188-10
 CH2OH           4.412-12
 CH3O            7.394-13
 CH4             1.986-10
 CH3OH           1.345-12
 *CN             8.934-10
 CNN             1.657-16
 *CO             1.5355-1
 *CO2            3.4090-2
 COOH            1.2481-7
 C2H             1.437-15
 C2H2,acetylene  5.389-13
 C2H2,vinylidene 4.732-16
 CH2CO,ketene    3.315-12
 O(CH)2O         5.316-15
 HO(CO)2OH       2.252-16
 CH3CN           4.049-16
 CH3CO,acetyl    8.910-16
 C2H4            2.610-16
 OCCN            2.908-13
 C2N2            3.291-14
 C2O             1.251-12
 C3O2            1.250-14
 *H              2.6459-3
 HCN             4.3833-7
 HCO             5.2116-7
 HCCO            2.728-13
 HNC             4.8616-8
 HNCO            1.7410-7
 HNO             5.2885-8
 HNO2            9.337-10
 HNO3            3.099-15
 HO2             1.7080-8
 *H2             7.7542-2
 HCHO,formaldehy 4.6406-8
 HCOOH           5.9380-8
 H2O             1.0834-1
 H2O2            8.1687-9
 *N              1.0315-7
 NCO             3.8786-9
 *NH             1.0784-7
 NH2             2.3009-7
 NH3             1.6479-6
 NH2OH           2.688-11
 *NO             1.5089-4
 NO2             2.8006-9
 NO3             1.553-16
 *N2             6.2277-1
 NCN             3.955-14
 N2H2            2.151-11
 N2H4            2.947-15
 N2O             2.3141-8
 N3              8.265-13
 N3H             1.009-12
 *O              1.7700-5
 *OH             8.7717-4
 *O2             1.0111-5
 O3              4.045-14

  * THERMODYNAMIC PROPERTIES FITTED TO 20000.K









         THERMODYNAMIC EQUILIBRIUM COMBUSTION PROPERTIES AT ASSIGNED

                                     VOLUME

 CASE =                

             REACTANT                       MOLES         ENERGY      TEMP
                                                         KJ/KG-MOL      K
 FUEL        C2H4                         1.0000000     50085.152    300.000
 OXIDANT     O2                           3.0000000     -2439.995    300.000
 OXIDANT     N2                          11.2857000     -2440.472    300.000

 O/F=    8.16203  %FUEL= 10.914614  R,EQ.RATIO= 1.800000  PHI,EQ.RATIO= 1.800000

 THERMODYNAMIC PROPERTIES

 P, BAR            9.4878
 T, K             2474.88
 RHO, KG/CU M    1.1523 0
 H, KJ/KG          942.89
 U, KJ/KG          119.51
 G, KJ/KG        -23738.0
 S, KJ/(KG)(K)     9.9726

 M, (1/n)          24.991
 (dLV/dLP)t      -1.00072
 (dLV/dLT)p        1.0169
 Cp, KJ/(KG)(K)    1.7042
 GAMMAs            1.2518
 SON VEL,M/SEC     1015.2

 MOLE FRACTIONS

 *C              4.685-13
 *CH             5.651-13
 CH2             9.551-12
 CH3             2.151-10
 CH2OH           5.557-12
 CH3O            8.838-13
 CH4             5.040-10
 CH3OH           2.293-12
 *CN             8.680-10
 CNN             1.245-16
 *CO             1.6544-1
 *CO2            2.9024-2
 COOH            9.4181-8
 C2H             2.149-15
 C2H2,acetylene  1.305-12
 C2H2,vinylidene 9.337-16
 CH2CO,ketene    6.384-12
 O(CH)2O         7.024-15
 HO(CO)2OH       1.771-16
 C2H3,vinyl      1.840-16
 CH3CN           1.275-15
 CH3CO,acetyl    1.781-15
 C2H4            9.321-16
 CH3CHO,ethanal  1.943-16
 OCCN            3.409-13
 C2N2            5.832-14
 C2O             1.354-12
 C3O2            1.954-14
 *H              2.2312-3
 HCN             6.6044-7
 HCO             5.1305-7
 HCCO            3.694-13
 HNC             6.8167-8
 HNCO            2.0184-7
 HNO             2.9046-8
 HNO2            3.623-10
 HNO3            7.293-16
 HO2             6.1192-9
 *H2             9.3083-2
 HCHO,formaldehy 5.9476-8
 HCOOH           5.8656-8
 H2O             9.9998-2
 H2O2            3.7962-9
 *N              5.8505-8
 NCO             3.0617-9
 *NH             7.7081-8
 NH2             2.1929-7
 NH3             2.2628-6
 NH2OH           2.091-11
 *NO             7.7310-5
 NO2             8.766-10
 *N2             6.0960-1
 NCN             3.470-14
 N2H2            1.937-11
 N2H4            3.652-15
 N2O             1.1667-8
 N3              4.741-13
 N3H             7.470-13
 *O              7.5984-6
 *OH             5.3183-4
 *O2             3.3543-6
 O3              6.412-15

  * THERMODYNAMIC PROPERTIES FITTED TO 20000.K









         THERMODYNAMIC EQUILIBRIUM COMBUSTION PROPERTIES AT ASSIGNED

                                     VOLUME

 CASE =                

             REACTANT                       MOLES         ENERGY      TEMP
                                                         KJ/KG-MOL      K
 FUEL        C2H4                         1.0000000     50085.152    300.000
 OXIDANT     O2                           3.0000000     -2439.995    300.000
 OXIDANT     N2                          11.2857000     -2440.472    300.000

 O/F=    7.73245  %FUEL= 11.451543  R,EQ.RATIO= 1.900000  PHI,EQ.RATIO= 1.900000

 THERMODYNAMIC PROPERTIES

 P, BAR            9.3958
 T, K             2414.31
 RHO, KG/CU M    1.1523 0
 H, KJ/KG          944.95
 U, KJ/KG          129.55
 G, KJ/KG        -23290.0
 S, KJ/(KG)(K)    10.0380

 M, (1/n)          24.619
 (dLV/dLP)t      -1.00056
 (dLV/dLT)p        1.0131
 Cp, KJ/(KG)(K)    1.6847
 GAMMAs            1.2582
 SON VEL,M/SEC     1012.9

 MOLE FRACTIONS

 *C              3.131-13
 *CH             4.724-13
 CH2             1.113-11
 CH3             3.637-10
 CH2OH           6.603-12
 CH3O            9.945-13
 CH4             1.1924-9
 CH3OH           3.673-12
 *CN             8.078-10
 *CO             1.7616-1
 *CO2            2.4830-2
 COOH            6.9741-8
 C2H             2.955-15
 C2H2,acetylene  2.919-12
 C2H2,vinylidene 1.685-15
 CH2CO,ketene    1.154-11
 O(CH)2O         8.801-15
 HO(CO)2OH       1.362-16
 C2H3,vinyl      4.106-16
 CH3CN           3.689-15
 CH3CO,acetyl    3.288-15
 C2H4            3.020-15
 CH3CHO,ethanal  4.707-16
 OCCN            3.804-13
 C2N2            9.766-14
 C2O             1.390-12
 C3O2            2.900-14
 *H              1.8344-3
 HCN             9.5557-7
 HCO             4.8821-7
 HCCO            4.703-13
 HNC             9.1469-8
 HNCO            2.2809-7
 HNO             1.5684-8
 HNO2            1.396-10
 HNO3            1.713-16
 HO2             2.1688-9
 *H2             1.0874-1
 HCHO,formaldehy 7.3276-8
 HCOOH           5.6565-8
 H2O             9.1170-2
 H2O2            1.7348-9
 *N              3.2359-8
 NCO             2.3564-9
 *NH             5.3323-8
 NH2             2.0135-7
 NH3             2.9903-6
 NH2OH           1.568-11
 *NO             3.9492-5
 NO2             2.748-10
 *N2             5.9690-1
 NCN             2.904-14
 N2H2            1.678-11
 N2H4            4.261-15
 N2O             5.8659-9
 N3              2.657-13
 N3H             5.366-13
 *O              3.2245-6
 *OH             3.1804-4
 *O2             1.1168-6
 O3              1.015-15

  * THERMODYNAMIC PROPERTIES FITTED TO 20000.K









         THERMODYNAMIC EQUILIBRIUM COMBUSTION PROPERTIES AT ASSIGNED

                                     VOLUME

 CASE =                

             REACTANT                       MOLES         ENERGY      TEMP
                                                         KJ/KG-MOL      K
 FUEL        C2H4                         1.0000000     50085.152    300.000
 OXIDANT     O2                           3.0000000     -2439.995    300.000
 OXIDANT     N2                          11.2857000     -2440.472    300.000

 O/F=    7.34583  %FUEL= 11.982038  R,EQ.RATIO= 2.000000  PHI,EQ.RATIO= 2.000000

 THERMODYNAMIC PROPERTIES

 P, BAR            9.2979
 T, K             2354.32
 RHO, KG/CU M    1.1523 0
 H, KJ/KG          946.37
 U, KJ/KG          139.47
 G, KJ/KG        -22832.9
 S, KJ/(KG)(K)    10.1003

 M, (1/n)          24.260
 (dLV/dLP)t      -1.00043
 (dLV/dLT)p        1.0102
 Cp, KJ/(KG)(K)    1.6713
 GAMMAs            1.2639
 SON VEL,M/SEC     1009.9

 MOLE FRACTIONS

 *C              1.995-13
 *CH             3.748-13
 CH2             1.229-11
 CH3             5.838-10
 CH2OH           7.486-12
 CH3O            1.066-12
 CH4             2.6800-9
 CH3OH           5.607-12
 *CN             7.272-10
 *CO             1.8594-1
 *CO2            2.1296-2
 COOH            5.0738-8
 C2H             3.814-15
 C2H2,acetylene  6.166-12
 C2H2,vinylidene 2.845-15
 CH2CO,ketene    1.993-11
 O(CH)2O         1.058-14
 HO(CO)2OH       1.026-16
 C2H3,vinyl      8.533-16
 CH3CN           1.005-14
 CH3CO,acetyl    5.725-15
 C2H4            9.120-15
 CH3CHO,ethanal  1.072-15
 CH3COOH         1.230-16
 OCCN            4.089-13
 C2N2            1.572-13
 C2O             1.369-12
 C3O2            4.147-14
 *H              1.4757-3
 HCN             1.3426-6
 HCO             4.5195-7
 HCCO            5.717-13
 HNC             1.1881-7
 HNCO            2.5273-7
 HNO             8.3154-9
 HNO2            5.316-11
 HO2             7.559-10
 *H2             1.2428-1
 HCHO,formaldehy 8.7535-8
 HCOOH           5.3433-8
 H2O             8.2113-2
 H2O2            7.766-10
 *N              1.7483-8
 NCO             1.7756-9
 *NH             3.5847-8
 NH2             1.7921-7
 NH3             3.8338-6
 NH2OH           1.137-11
 *NO             2.0031-5
 NO2             8.552-11
 *N2             5.8468-1
 NCN             2.342-14
 N2H2            1.408-11
 N2H4            4.736-15
 N2O             2.9294-9
 N3              1.457-13
 N3H             3.757-13
 *O              1.3480-6
 *OH             1.8729-4
 *O2             3.6988-7
 O3              1.582-16

  * THERMODYNAMIC PROPERTIES FITTED TO 20000.K



