
 *******************************************************************************

         NASA-GLENN CHEMICAL EQUILIBRIUM PROGRAM CEA2, MAY 21, 2004
                   BY  BONNIE MCBRIDE AND SANFORD GORDON
      REFS: NASA RP-1311, PART I, 1994 AND NASA RP-1311, PART II, 1996

 *******************************************************************************



 problem    phi,eq.ratio=3.7,3.8,3.9,4,
       uv   rho,kg/m**3=1.19246,  t,k=3800
 react
   fuel=C2H4 moles=1 t,k=300
   oxid=O2 moles=3 t,k=300
 output
      trace=1e-16 siunits short
 end




         THERMODYNAMIC EQUILIBRIUM COMBUSTION PROPERTIES AT ASSIGNED

                                     VOLUME

 CASE =                

             REACTANT                       MOLES         ENERGY      TEMP
                                                         KJ/KG-MOL      K
 FUEL        C2H4                         1.0000000     50085.152    300.000
 OXIDANT     O2                           3.0000000     -2439.995    300.000

 O/F=    0.92485  %FUEL= 51.952093  R,EQ.RATIO= 3.700000  PHI,EQ.RATIO= 3.700000

 THERMODYNAMIC PROPERTIES

 P, BAR            17.255
 T, K             2588.82
 RHO, KG/CU M    1.1925 0
 H, KJ/KG         2337.94
 U, KJ/KG          890.90
 G, KJ/KG        -35433.0
 S, KJ/(KG)(K)    14.5900

 M, (1/n)          14.875
 MW, MOL WT        13.693
 (dLV/dLP)t      -1.00249
 (dLV/dLT)p        1.0371
 Cp, KJ/(KG)(K)    3.5378
 GAMMAs            1.2011
 SON VEL,M/SEC     1318.4

 MOLE FRACTIONS

 *C              2.8835-8
 *CH             8.6477-8
 CH2             3.0065-6
 CH3             1.2971-4
 CH2OH           5.694-10
 CH3O            9.973-11
 CH4             6.2242-4
 CH3OH           5.125-10
 *CO             4.1111-1
 *CO2            9.6953-6
 COOH            1.492-10
 *C2             9.2665-9
 C2H             8.1014-6
 C2H2,acetylene  7.7161-3
 C2H2,vinylidene 8.0391-6
 CH2CO,ketene    5.0142-6
 O(CH)2O         9.610-13
 C2H3,vinyl      4.0190-6
 CH3CO,acetyl    4.9674-9
 C2H4            3.9041-5
 C2H4O,ethylen-o 4.718-13
 CH3CHO,ethanal  1.2398-9
 CH3COOH         3.274-14
 C2H5            3.4904-8
 C2H6            2.7808-8
 C2H5OH          1.189-13
 CH3OCH3         1.790-15
 C2O             2.1184-7
 *C3             1.0072-7
 C3H3,1-propynl  1.2008-8
 C3H3,2-propynl  1.4286-5
 C3H4,allene     1.0644-6
 C3H4,propyne    2.3766-6
 C3H4,cyclo-     1.4813-8
 C3H5,allyl      2.1221-8
 C3H6,propylene  1.2905-8
 C3H6,cyclo-     7.670-11
 C3H6O,propylox  1.090-16
 C3H6O,acetone   1.170-13
 C3H6O,propanal  1.307-13
 C3H7,n-propyl   3.959-12
 C3H7,i-propyl   2.703-12
 C3H8            3.080-12
 C3O2            8.6348-9
 *C4             8.723-11
 C4H2,butadiyne  4.9529-5
 C4H4,1,3-cyclo- 1.293-10
 C4H6,butadiene  1.8505-9
 C4H6,1butyne    2.872-10
 C4H6,2butyne    1.607-10
 C4H6,cyclo-     6.237-12
 C4H8,1-butene   1.312-12
 C4H8,cis2-buten 4.422-13
 C4H8,tr2-butene 5.000-13
 C4H8,isobutene  5.054-13
 C4H8,cyclo-     1.021-15
 C4H9,n-butyl    7.897-16
 C4H9,i-butyl    3.845-16
 C4H9,s-butyl    4.993-16
 C4H10,n-butane  3.604-16
 C4H10,isobutane 1.029-16
 *C5             4.327-10
 C5H6,1,3cyclo-  5.037-11
 C5H8,cyclo-     1.260-14
 C5H10,1-pentene 1.039-16
 C6H2            3.3476-7
 C6H5,phenyl     1.571-11
 C6H5O,phenoxy   9.708-16
 C6H6            1.073-10
 C6H5OH,phenol   1.648-15
 C7H7,benzyl     1.566-13
 C7H8            4.979-14
 C8H8,styrene    1.093-14
 C10H8,naphthale 5.304-16
 *H              5.9675-3
 HCO             5.7195-6
 HCCO            1.4571-7
 HO2             5.994-16
 *H2             4.9476-1
 HCHO,formaldehy 1.5530-6
 HCOOH           2.156-10
 H2O             7.5104-5
 H2O2            8.767-16
 *O              1.6107-9
 *OH             2.2730-7
 *O2             9.954-14
 C(gr)           7.9469-2

  * THERMODYNAMIC PROPERTIES FITTED TO 20000.K









         THERMODYNAMIC EQUILIBRIUM COMBUSTION PROPERTIES AT ASSIGNED

                                     VOLUME

 CASE =                

             REACTANT                       MOLES         ENERGY      TEMP
                                                         KJ/KG-MOL      K
 FUEL        C2H4                         1.0000000     50085.152    300.000
 OXIDANT     O2                           3.0000000     -2439.995    300.000

 O/F=    0.90051  %FUEL= 52.617397  R,EQ.RATIO= 3.800000  PHI,EQ.RATIO= 3.800000

 THERMODYNAMIC PROPERTIES

 P, BAR            17.078
 T, K             2560.88
 RHO, KG/CU M    1.1925 0
 H, KJ/KG         2335.44
 U, KJ/KG          903.28
 G, KJ/KG        -35005.1
 S, KJ/(KG)(K)    14.5811

 M, (1/n)          14.867
 MW, MOL WT        13.503
 (dLV/dLP)t      -1.00238
 (dLV/dLT)p        1.0343
 Cp, KJ/(KG)(K)    3.4922
 GAMMAs            1.2033
 SON VEL,M/SEC     1312.7

 MOLE FRACTIONS

 *C              2.0018-8
 *CH             6.4049-8
 CH2             2.4852-6
 CH3             1.2168-4
 CH2OH           5.323-10
 CH3O            9.110-11
 CH4             6.5205-4
 CH3OH           5.272-10
 *CO             3.9977-1
 *CO2            9.9297-6
 COOH            1.399-10
 *C2             6.1038-9
 C2H             6.0996-6
 C2H2,acetylene  6.9129-3
 C2H2,vinylidene 6.5898-6
 CH2CO,ketene    4.7454-6
 O(CH)2O         9.009-13
 C2H3,vinyl      3.4977-6
 CH3CO,acetyl    4.6088-9
 C2H4            3.8551-5
 C2H4O,ethylen-o 4.486-13
 CH3CHO,ethanal  1.2518-9
 CH3COOH         3.440-14
 C2H5            3.3428-8
 C2H6            2.9553-8
 C2H5OH          1.247-13
 CH3OCH3         1.831-15
 C2O             1.6765-7
 *C3             6.6701-8
 C3H3,1-propynl  9.7086-9
 C3H3,2-propynl  1.2204-5
 C3H4,allene     9.7859-7
 C3H4,propyne    2.1933-6
 C3H4,cyclo-     1.3042-8
 C3H5,allyl      1.9769-8
 C3H6,propylene  1.3012-8
 C3H6,cyclo-     7.585-11
 C3H6O,propylox  1.062-16
 C3H6O,acetone   1.219-13
 C3H6O,propanal  1.335-13
 C3H7,n-propyl   3.841-12
 C3H7,i-propyl   2.639-12
 C3H8            3.319-12
 C3O2            7.5973-9
 *C4             5.194-11
 C4H2,butadiyne  3.9682-5
 C4H4,1,3-cyclo- 1.079-10
 C4H6,butadiene  1.7570-9
 C4H6,1butyne    2.688-10
 C4H6,2butyne    1.522-10
 C4H6,cyclo-     5.853-12
 C4H8,1-butene   1.342-12
 C4H8,cis2-buten 4.550-13
 C4H8,tr2-butene 5.143-13
 C4H8,isobutene  5.213-13
 C4H8,cyclo-     1.027-15
 C4H9,n-butyl    7.814-16
 C4H9,i-butyl    3.821-16
 C4H9,s-butyl    4.947-16
 C4H10,n-butane  3.935-16
 C4H10,isobutane 1.128-16
 *C5             2.555-10
 C5H6,1,3cyclo-  4.780-11
 C5H8,cyclo-     1.264-14
 C5H10,1-pentene 1.080-16
 C6H2            2.3978-7
 C6H5,phenyl     1.346-11
 C6H5O,phenoxy   8.784-16
 C6H6            1.048-10
 C6H5OH,phenol   1.608-15
 C7H7,benzyl     1.429-13
 C7H8            4.968-14
 C8H8,styrene    1.038-14
 C10H8,naphthale 5.017-16
 *H              5.3085-3
 HCO             5.1596-6
 HCCO            1.2263-7
 HO2             5.004-16
 *H2             4.9522-1
 HCHO,formaldehy 1.5160-6
 HCOOH           2.192-10
 H2O             7.8253-5
 H2O2            7.908-16
 *O              1.2920-9
 *OH             2.0445-7
 *O2             8.330-14
 C(gr)           9.1801-2

  * THERMODYNAMIC PROPERTIES FITTED TO 20000.K









         THERMODYNAMIC EQUILIBRIUM COMBUSTION PROPERTIES AT ASSIGNED

                                     VOLUME

 CASE =                

             REACTANT                       MOLES         ENERGY      TEMP
                                                         KJ/KG-MOL      K
 FUEL        C2H4                         1.0000000     50085.152    300.000
 OXIDANT     O2                           3.0000000     -2439.995    300.000

 O/F=    0.87742  %FUEL= 53.264528  R,EQ.RATIO= 3.900000  PHI,EQ.RATIO= 3.900000

 THERMODYNAMIC PROPERTIES

 P, BAR            16.905
 T, K             2533.63
 RHO, KG/CU M    1.1925 0
 H, KJ/KG         2332.97
 U, KJ/KG          915.33
 G, KJ/KG        -34587.2
 S, KJ/(KG)(K)    14.5720

 M, (1/n)          14.860
 MW, MOL WT        13.324
 (dLV/dLP)t      -1.00228
 (dLV/dLT)p        1.0318
 Cp, KJ/(KG)(K)    3.4505
 GAMMAs            1.2053
 SON VEL,M/SEC     1307.2

 MOLE FRACTIONS

 *C              1.3918-8
 *CH             4.7489-8
 CH2             2.0551-6
 CH3             1.1411-4
 CH2OH           4.976-10
 CH3O            8.325-11
 CH4             6.8263-4
 CH3OH           5.420-10
 *CO             3.8908-1
 *CO2            1.0181-5
 COOH            1.314-10
 *C2             4.0271-9
 C2H             4.5969-6
 C2H2,acetylene  6.1943-3
 C2H2,vinylidene 5.4037-6
 CH2CO,ketene    4.4927-6
 O(CH)2O         8.453-13
 C2H3,vinyl      3.0439-6
 CH3CO,acetyl    4.2771-9
 C2H4            3.8040-5
 C2H4O,ethylen-o 4.266-13
 CH3CHO,ethanal  1.2635-9
 CH3COOH         3.614-14
 C2H5            3.1988-8
 C2H6            3.1363-8
 C2H5OH          1.307-13
 CH3OCH3         1.872-15
 C2O             1.3288-7
 *C3             4.4238-8
 C3H3,1-propynl  7.8505-9
 C3H3,2-propynl  1.0425-5
 C3H4,allene     8.9928-7
 C3H4,propyne    2.0231-6
 C3H4,cyclo-     1.1479-8
 C3H5,allyl      1.8404-8
 C3H6,propylene  1.3104-8
 C3H6,cyclo-     7.492-11
 C3H6O,propylox  1.033-16
 C3H6O,acetone   1.269-13
 C3H6O,propanal  1.363-13
 C3H7,n-propyl   3.720-12
 C3H7,i-propyl   2.574-12
 C3H8            3.570-12
 C3O2            6.6948-9
 *C4             3.099-11
 C4H2,butadiyne  3.1806-5
 C4H4,1,3-cyclo- 8.993-11
 C4H6,butadiene  1.6672-9
 C4H6,1butyne    2.513-10
 C4H6,2butyne    1.440-10
 C4H6,cyclo-     5.488-12
 C4H8,1-butene   1.370-12
 C4H8,cis2-buten 4.672-13
 C4H8,tr2-butene 5.280-13
 C4H8,isobutene  5.367-13
 C4H8,cyclo-     1.031-15
 C4H9,n-butyl    7.717-16
 C4H9,i-butyl    3.788-16
 C4H9,s-butyl    4.891-16
 C4H10,n-butane  4.285-16
 C4H10,isobutane 1.234-16
 *C5             1.511-10
 C5H6,1,3cyclo-  4.531-11
 C5H8,cyclo-     1.265-14
 C5H10,1-pentene 1.120-16
 C6H2            1.7187-7
 C6H5,phenyl     1.153-11
 C6H5O,phenoxy   7.945-16
 C6H6            1.022-10
 C6H5OH,phenol   1.568-15
 C7H7,benzyl     1.303-13
 C7H8            4.948-14
 C8H8,styrene    9.838-15
 C10H8,naphthale 4.738-16
 *H              4.7250-3
 HCO             4.6582-6
 HCCO            1.0330-7
 HO2             4.184-16
 *H2             4.9562-1
 HCHO,formaldehy 1.4802-6
 HCOOH           2.231-10
 H2O             8.1546-5
 H2O2            7.141-16
 *O              1.0380-9
 *OH             1.8406-7
 *O2             6.984-14
 C(gr)           1.0339-1

  * THERMODYNAMIC PROPERTIES FITTED TO 20000.K









         THERMODYNAMIC EQUILIBRIUM COMBUSTION PROPERTIES AT ASSIGNED

                                     VOLUME

 CASE =                

             REACTANT                       MOLES         ENERGY      TEMP
                                                         KJ/KG-MOL      K
 FUEL        C2H4                         1.0000000     50085.152    300.000
 OXIDANT     O2                           3.0000000     -2439.995    300.000

 O/F=    0.85549  %FUEL= 53.894221  R,EQ.RATIO= 4.000000  PHI,EQ.RATIO= 4.000000

 THERMODYNAMIC PROPERTIES

 P, BAR            16.736
 T, K             2507.05
 RHO, KG/CU M    1.1925 0
 H, KJ/KG         2330.55
 U, KJ/KG          927.05
 G, KJ/KG        -34179.0
 S, KJ/(KG)(K)    14.5628

 M, (1/n)          14.852
 MW, MOL WT        13.155
 (dLV/dLP)t      -1.00219
 (dLV/dLT)p        1.0295
 Cp, KJ/(KG)(K)    3.4126
 GAMMAs            1.2073
 SON VEL,M/SEC     1301.7

 MOLE FRACTIONS

 *C              9.6934-9
 *CH             3.5254-8
 CH2             1.7003-6
 CH3             1.0700-4
 CH2OH           4.653-10
 CH3O            7.610-11
 CH4             7.1417-4
 CH3OH           5.571-10
 *CO             3.7896-1
 *CO2            1.0450-5
 COOH            1.234-10
 *C2             2.6618-9
 C2H             3.4684-6
 C2H2,acetylene  5.5519-3
 C2H2,vinylidene 4.4333-6
 CH2CO,ketene    4.2551-6
 O(CH)2O         7.937-13
 C2H3,vinyl      2.6491-6
 CH3CO,acetyl    3.9703-9
 C2H4            3.7515-5
 C2H4O,ethylen-o 4.055-13
 CH3CHO,ethanal  1.2749-9
 CH3COOH         3.796-14
 C2H5            3.0587-8
 C2H6            3.3240-8
 C2H5OH          1.369-13
 CH3OCH3         1.912-15
 C2O             1.0549-7
 *C3             2.9388-8
 C3H3,1-propynl  6.3500-9
 C3H3,2-propynl  8.9068-6
 C3H4,allene     8.2610-7
 C3H4,propyne    1.8654-6
 C3H4,cyclo-     1.0102-8
 C3H5,allyl      1.7123-8
 C3H6,propylene  1.3181-8
 C3H6,cyclo-     7.392-11
 C3H6O,propylox  1.006-16
 C3H6O,acetone   1.320-13
 C3H6O,propanal  1.390-13
 C3H7,n-propyl   3.599-12
 C3H7,i-propyl   2.506-12
 C3H8            3.832-12
 C3O2            5.9086-9
 *C4             1.853-11
 C4H2,butadiyne  2.5509-5
 C4H4,1,3-cyclo- 7.499-11
 C4H6,butadiene  1.5813-9
 C4H6,1butyne    2.348-10
 C4H6,2butyne    1.361-10
 C4H6,cyclo-     5.141-12
 C4H8,1-butene   1.396-12
 C4H8,cis2-buten 4.790-13
 C4H8,tr2-butene 5.412-13
 C4H8,isobutene  5.517-13
 C4H8,cyclo-     1.034-15
 C4H9,n-butyl    7.606-16
 C4H9,i-butyl    3.749-16
 C4H9,s-butyl    4.828-16
 C4H10,n-butane  4.655-16
 C4H10,isobutane 1.346-16
 *C5             8.960-11
 C5H6,1,3cyclo-  4.292-11
 C5H8,cyclo-     1.264-14
 C5H10,1-pentene 1.159-16
 C6H2            1.2332-7
 C6H5,phenyl     9.871-12
 C6H5O,phenoxy   7.186-16
 C6H6            9.955-11
 C6H5OH,phenol   1.528-15
 C7H7,benzyl     1.187-13
 C7H8            4.920-14
 C8H8,styrene    9.309-15
 C10H8,naphthale 4.468-16
 *H              4.2084-3
 HCO             4.2090-6
 HCCO            8.7118-8
 HO2             3.505-16
 *H2             4.9597-1
 HCHO,formaldehy 1.4458-6
 HCOOH           2.271-10
 H2O             8.4986-5
 H2O2            6.455-16
 *O              8.353-10
 *OH             1.6586-7
 *O2             5.866-14
 C(gr)           1.1429-1

  * THERMODYNAMIC PROPERTIES FITTED TO 20000.K



