
 *******************************************************************************

         NASA-GLENN CHEMICAL EQUILIBRIUM PROGRAM CEA2, MAY 21, 2004
                   BY  BONNIE MCBRIDE AND SANFORD GORDON
      REFS: NASA RP-1311, PART I, 1994 AND NASA RP-1311, PART II, 1996

 *******************************************************************************



 problem    phi,eq.ratio=2.1,2.2,2.3,2.4,2.5,2.6,2.7,2.8,2.9,3,3.1,3.2,3.3,3.4,3.
 5,3.6,
       uv   rho,kg/m**3=1.19246,  t,k=3800
 react
   fuel=C2H4 moles=1 t,k=300
   oxid=O2 moles=3 t,k=300
 output
      trace=1e-16 siunits short
 end




         THERMODYNAMIC EQUILIBRIUM COMBUSTION PROPERTIES AT ASSIGNED

                                     VOLUME

 CASE =                

             REACTANT                       MOLES         ENERGY      TEMP
                                                         KJ/KG-MOL      K
 FUEL        C2H4                         1.0000000     50085.152    300.000
 OXIDANT     O2                           3.0000000     -2439.995    300.000

 O/F=    1.62950  %FUEL= 38.030071  R,EQ.RATIO= 2.100000  PHI,EQ.RATIO= 2.100000

 THERMODYNAMIC PROPERTIES

 P, BAR            20.218
 T, K             3557.82
 RHO, KG/CU M    1.1925 0
 H, KJ/KG         2327.23
 U, KJ/KG          631.72
 G, KJ/KG        -47041.5
 S, KJ/(KG)(K)    13.8761

 M, (1/n)          17.447
 (dLV/dLP)t      -1.02806
 (dLV/dLT)p        1.4621
 Cp, KJ/(KG)(K)    5.9642
 GAMMAs            1.1665
 SON VEL,M/SEC     1406.4

 MOLE FRACTIONS

 *C              1.4902-8
 *CH             7.2797-9
 CH2             1.3083-8
 CH3             1.9852-8
 CH2OH           9.076-10
 CH3O            2.956-10
 CH4             5.4201-9
 CH3OH           6.358-11
 CH3OOH          9.865-16
 *CO             4.4441-1
 *CO2            2.8593-2
 COOH            3.2475-6
 *C2             1.168-12
 C2H             3.026-11
 C2H2,acetylene  3.118-10
 C2H2,vinylidene 2.874-12
 CH2CO,ketene    4.926-10
 O(CH)2O         1.170-12
 HO(CO)2OH       7.175-15
 C2H3,vinyl      2.695-13
 CH3CO,acetyl    6.716-13
 C2H4            9.372-14
 CH3CHO,ethanal  1.659-14
 CH3COOH         1.608-15
 C2H5            1.472-16
 C2O             2.7026-9
 *C3             7.156-16
 C3H3,2-propynl  1.031-16
 C3O2            5.126-12
 *H              7.8466-2
 HCO             3.3080-5
 HCCO            3.241-10
 HO2             3.5791-6
 *H2             2.7505-1
 HCHO,formaldehy 1.0446-6
 HCOOH           5.1574-7
 H2O             1.4800-1
 H2O2            6.1798-7
 *O              3.3025-3
 *OH             2.1454-2
 *O2             6.8150-4
 O3              3.314-10

  * THERMODYNAMIC PROPERTIES FITTED TO 20000.K









         THERMODYNAMIC EQUILIBRIUM COMBUSTION PROPERTIES AT ASSIGNED

                                     VOLUME

 CASE =                

             REACTANT                       MOLES         ENERGY      TEMP
                                                         KJ/KG-MOL      K
 FUEL        C2H4                         1.0000000     50085.152    300.000
 OXIDANT     O2                           3.0000000     -2439.995    300.000

 O/F=    1.55543  %FUEL= 39.132357  R,EQ.RATIO= 2.200000  PHI,EQ.RATIO= 2.200000

 THERMODYNAMIC PROPERTIES

 P, BAR            20.280
 T, K             3497.59
 RHO, KG/CU M    1.1925 0
 H, KJ/KG         2352.90
 U, KJ/KG          652.24
 G, KJ/KG        -46603.4
 S, KJ/(KG)(K)    13.9971

 M, (1/n)          17.100
 (dLV/dLP)t      -1.02351
 (dLV/dLT)p        1.3903
 Cp, KJ/(KG)(K)    5.5062
 GAMMAs            1.1726
 SON VEL,M/SEC     1412.1

 MOLE FRACTIONS

 *C              1.3311-8
 *CH             7.3274-9
 CH2             1.5665-8
 CH3             2.8728-8
 CH2OH           1.0130-9
 CH3O            3.199-10
 CH4             9.2280-9
 CH3OH           8.258-11
 CH3OOH          8.576-16
 *CO             4.5316-1
 *CO2            2.3863-2
 COOH            2.5638-6
 *C2             1.335-12
 C2H             4.212-11
 C2H2,acetylene  5.536-10
 C2H2,vinylidene 4.626-12
 CH2CO,ketene    7.213-10
 O(CH)2O         1.309-12
 HO(CO)2OH       5.257-15
 C2H3,vinyl      4.852-13
 CH3CO,acetyl    1.003-12
 C2H4            2.036-13
 CH3CHO,ethanal  2.857-14
 CH3COOH         2.238-15
 C2H5            3.231-16
 C2O             2.9426-9
 *C3             1.120-15
 C3H3,2-propynl  2.463-16
 C3O2            6.606-12
 *H              7.1762-2
 HCO             3.2370-5
 HCCO            3.967-10
 HO2             1.8202-6
 *H2             3.0190-1
 HCHO,formaldehy 1.1690-6
 HCOOH           4.6686-7
 H2O             1.3156-1
 H2O2            3.5958-7
 *O              1.9825-3
 *OH             1.5398-2
 *O2             3.3228-4
 O3              1.013-10

  * THERMODYNAMIC PROPERTIES FITTED TO 20000.K









         THERMODYNAMIC EQUILIBRIUM COMBUSTION PROPERTIES AT ASSIGNED

                                     VOLUME

 CASE =                

             REACTANT                       MOLES         ENERGY      TEMP
                                                         KJ/KG-MOL      K
 FUEL        C2H4                         1.0000000     50085.152    300.000
 OXIDANT     O2                           3.0000000     -2439.995    300.000

 O/F=    1.48780  %FUEL= 40.196115  R,EQ.RATIO= 2.300000  PHI,EQ.RATIO= 2.300000

 THERMODYNAMIC PROPERTIES

 P, BAR            20.293
 T, K             3432.55
 RHO, KG/CU M    1.1925 0
 H, KJ/KG         2373.83
 U, KJ/KG          672.05
 G, KJ/KG        -46055.8
 S, KJ/(KG)(K)    14.1089

 M, (1/n)          16.771
 (dLV/dLP)t      -1.01965
 (dLV/dLT)p        1.3294
 Cp, KJ/(KG)(K)    5.1105
 GAMMAs            1.1789
 SON VEL,M/SEC     1416.4

 MOLE FRACTIONS

 *C              1.1529-8
 *CH             7.1734-9
 CH2             1.8415-8
 CH3             4.1289-8
 CH2OH           1.1023-9
 CH3O            3.364-10
 CH4             1.5746-8
 CH3OH           1.053-10
 CH3OOH          7.068-16
 *CO             4.6092-1
 *CO2            1.9646-2
 COOH            1.9614-6
 *C2             1.493-12
 C2H             5.810-11
 C2H2,acetylene  9.916-10
 C2H2,vinylidene 7.422-12
 CH2CO,ketene    1.0543-9
 O(CH)2O         1.435-12
 HO(CO)2OH       3.680-15
 C2H3,vinyl      8.726-13
 CH3CO,acetyl    1.484-12
 C2H4            4.471-13
 CH3CHO,ethanal  4.901-14
 CH3COOH         3.061-15
 C2H5            7.095-16
 C2O             3.1575-9
 *C3             1.746-15
 C3H3,2-propynl  5.958-16
 C3O2            8.498-12
 *H              6.4392-2
 HCO             3.1090-5
 HCCO            4.799-10
 HO2             8.6851-7
 *H2             3.2854-1
 HCHO,formaldehy 1.2904-6
 HCOOH           4.1169-7
 H2O             1.1451-1
 H2O2            1.9726-7
 *O              1.1372-3
 *OH             1.0667-2
 *O2             1.5294-4
 O3              2.802-11

  * THERMODYNAMIC PROPERTIES FITTED TO 20000.K









         THERMODYNAMIC EQUILIBRIUM COMBUSTION PROPERTIES AT ASSIGNED

                                     VOLUME

 CASE =                

             REACTANT                       MOLES         ENERGY      TEMP
                                                         KJ/KG-MOL      K
 FUEL        C2H4                         1.0000000     50085.152    300.000
 OXIDANT     O2                           3.0000000     -2439.995    300.000

 O/F=    1.42581  %FUEL= 41.223329  R,EQ.RATIO= 2.400000  PHI,EQ.RATIO= 2.400000

 THERMODYNAMIC PROPERTIES

 P, BAR            20.262
 T, K             3363.57
 RHO, KG/CU M    1.1925 0
 H, KJ/KG         2390.37
 U, KJ/KG          691.17
 G, KJ/KG        -45411.9
 S, KJ/(KG)(K)    14.2118

 M, (1/n)          16.459
 (dLV/dLP)t      -1.01637
 (dLV/dLT)p        1.2775
 Cp, KJ/(KG)(K)    4.7674
 GAMMAs            1.1856
 SON VEL,M/SEC     1419.4

 MOLE FRACTIONS

 *C              9.7443-9
 *CH             6.8743-9
 CH2             2.1383-8
 CH3             5.9277-8
 CH2OH           1.1712-9
 CH3O            3.443-10
 CH4             2.7083-8
 CH3OH           1.321-10
 CH3OOH          5.510-16
 *CO             4.6779-1
 *CO2            1.5890-2
 COOH            1.4491-6
 *C2             1.653-12
 C2H             8.030-11
 C2H2,acetylene  1.8113-9
 C2H2,vinylidene 1.200-11
 CH2CO,ketene    1.5480-9
 O(CH)2O         1.542-12
 HO(CO)2OH       2.442-15
 C2H3,vinyl      1.586-12
 CH3CO,acetyl    2.186-12
 C2H4            1.003-12
 C2H4O,ethylen-o 1.155-16
 CH3CHO,ethanal  8.424-14
 CH3COOH         4.125-15
 C2H5            1.577-15
 C2H6            1.307-16
 C2O             3.3603-9
 *C3             2.755-15
 C3H3,2-propynl  1.484-15
 C3O2            1.098-11
 *H              5.6724-2
 HCO             2.9340-5
 HCCO            5.773-10
 HO2             3.8581-7
 *H2             3.5460-1
 HCHO,formaldehy 1.4064-6
 HCOOH           3.5239-7
 H2O             9.7177-2
 H2O2            1.0122-7
 *O              6.2115-4
 *OH             7.1044-3
 *O2             6.5917-5
 O3              6.944-12

  * THERMODYNAMIC PROPERTIES FITTED TO 20000.K









         THERMODYNAMIC EQUILIBRIUM COMBUSTION PROPERTIES AT ASSIGNED

                                     VOLUME

 CASE =                

             REACTANT                       MOLES         ENERGY      TEMP
                                                         KJ/KG-MOL      K
 FUEL        C2H4                         1.0000000     50085.152    300.000
 OXIDANT     O2                           3.0000000     -2439.995    300.000

 O/F=    1.36878  %FUEL= 42.215852  R,EQ.RATIO= 2.500000  PHI,EQ.RATIO= 2.500000

 THERMODYNAMIC PROPERTIES

 P, BAR            20.191
 T, K             3291.36
 RHO, KG/CU M    1.1925 0
 H, KJ/KG         2402.86
 U, KJ/KG          709.65
 G, KJ/KG        -44683.2
 S, KJ/(KG)(K)    14.3060

 M, (1/n)          16.162
 (dLV/dLP)t      -1.01356
 (dLV/dLT)p        1.2331
 Cp, KJ/(KG)(K)    4.4670
 GAMMAs            1.1927
 SON VEL,M/SEC     1421.1

 MOLE FRACTIONS

 *C              8.1052-9
 *CH             6.5043-9
 CH2             2.4738-8
 CH3             8.5754-8
 CH2OH           1.2167-9
 CH3O            3.435-10
 CH4             4.7379-8
 CH3OH           1.632-10
 CH3OOH          4.041-16
 *CO             4.7387-1
 *CO2            1.2538-2
 COOH            1.0272-6
 *C2             1.842-12
 C2H             1.130-10
 C2H2,acetylene  3.4293-9
 C2H2,vinylidene 1.988-11
 CH2CO,ketene    2.3032-9
 O(CH)2O         1.628-12
 HO(CO)2OH       1.517-15
 C2H3,vinyl      2.960-12
 CH3CO,acetyl    3.238-12
 C2H4            2.337-12
 C2H4O,ethylen-o 1.826-16
 CH3CHO,ethanal  1.464-13
 CH3COOH         5.485-15
 C2H5            3.607-15
 C2H6            3.606-16
 C2O             3.5775-9
 *C3             4.505-15
 C3H3,2-propynl  3.898-15
 C3H4,propyne    1.374-16
 C3O2            1.439-11
 *H              4.9080-2
 HCO             2.7228-5
 HCCO            6.966-10
 HO2             1.5735-7
 *H2             3.7976-1
 HCHO,formaldehy 1.5150-6
 HCOOH           2.9096-7
 H2O             7.9856-2
 H2O2            4.7923-8
 *O              3.2084-4
 *OH             4.5185-3
 *O2             2.6227-5
 O3              1.509-12

  * THERMODYNAMIC PROPERTIES FITTED TO 20000.K









         THERMODYNAMIC EQUILIBRIUM COMBUSTION PROPERTIES AT ASSIGNED

                                     VOLUME

 CASE =                

             REACTANT                       MOLES         ENERGY      TEMP
                                                         KJ/KG-MOL      K
 FUEL        C2H4                         1.0000000     50085.152    300.000
 OXIDANT     O2                           3.0000000     -2439.995    300.000

 O/F=    1.31613  %FUEL= 43.175412  R,EQ.RATIO= 2.600000  PHI,EQ.RATIO= 2.600000

 THERMODYNAMIC PROPERTIES

 P, BAR            20.082
 T, K             3216.48
 RHO, KG/CU M    1.1925 0
 H, KJ/KG         2411.56
 U, KJ/KG          727.51
 G, KJ/KG        -43878.7
 S, KJ/(KG)(K)    14.3916

 M, (1/n)          15.880
 (dLV/dLP)t      -1.01114
 (dLV/dLT)p        1.1947
 Cp, KJ/(KG)(K)    4.2008
 GAMMAs            1.2001
 SON VEL,M/SEC     1421.6

 MOLE FRACTIONS

 *C              6.7193-9
 *CH             6.1563-9
 CH2             2.8902-8
 CH3             1.2677-7
 CH2OH           1.2375-9
 CH3O            3.346-10
 CH4             8.5550-8
 CH3OH           1.990-10
 CH3OOH          2.758-16
 *CO             4.7926-1
 *CO2            9.5328-3
 COOH            6.9021-7
 *C2             2.118-12
 C2H             1.664-10
 C2H2,acetylene  6.9119-9
 C2H2,vinylidene 3.466-11
 CH2CO,ketene    3.5221-9
 O(CH)2O         1.692-12
 HO(CO)2OH       8.617-16
 C2H3,vinyl      5.831-12
 CH3CO,acetyl    4.894-12
 C2H4            5.817-12
 C2H4O,ethylen-o 2.941-16
 CH3CHO,ethanal  2.613-13
 CH3COOH         7.216-15
 C2H5            8.735-15
 C2H6            1.063-15
 C2O             3.8610-9
 *C3             7.938-15
 C3H3,2-propynl  1.125-14
 C3H4,allene     2.212-16
 C3H4,propyne    4.614-16
 C3O2            1.936-11
 *H              4.1717-2
 HCO             2.4861-5
 HCCO            8.549-10
 HO2             5.7454-8
 *H2             4.0380-1
 HCHO,formaldehy 1.6148-6
 HCOOH           2.2907-7
 H2O             6.2786-2
 H2O2            2.0421-8
 *O              1.5471-4
 *OH             2.7102-3
 *O2             9.3900-6
 O3              2.770-13

  * THERMODYNAMIC PROPERTIES FITTED TO 20000.K









         THERMODYNAMIC EQUILIBRIUM COMBUSTION PROPERTIES AT ASSIGNED

                                     VOLUME

 CASE =                

             REACTANT                       MOLES         ENERGY      TEMP
                                                         KJ/KG-MOL      K
 FUEL        C2H4                         1.0000000     50085.152    300.000
 OXIDANT     O2                           3.0000000     -2439.995    300.000

 O/F=    1.26739  %FUEL= 44.103623  R,EQ.RATIO= 2.700000  PHI,EQ.RATIO= 2.700000

 THERMODYNAMIC PROPERTIES

 P, BAR            19.937
 T, K             3139.31
 RHO, KG/CU M    1.1925 0
 H, KJ/KG         2416.68
 U, KJ/KG          744.79
 G, KJ/KG        -43004.8
 S, KJ/(KG)(K)    14.4686

 M, (1/n)          15.612
 (dLV/dLP)t      -1.00907
 (dLV/dLT)p        1.1614
 Cp, KJ/(KG)(K)    3.9625
 GAMMAs            1.2080
 SON VEL,M/SEC     1421.2

 MOLE FRACTIONS

 *C              5.6798-9
 *CH             5.9670-9
 CH2             3.4935-8
 CH3             1.9636-7
 CH2OH           1.2337-9
 CH3O            3.185-10
 CH4             1.6365-7
 CH3OH           2.398-10
 CH3OOH          1.713-16
 *CO             4.8404-1
 *CO2            6.8229-3
 COOH            4.2949-7
 *C2             2.636-12
 C2H             2.686-10
 C2H2,acetylene  1.5575-8
 C2H2,vinylidene 6.672-11
 CH2CO,ketene    5.6773-9
 O(CH)2O         1.732-12
 HO(CO)2OH       4.273-16
 C2H3,vinyl      1.273-11
 CH3CO,acetyl    7.742-12
 C2H4            1.625-11
 C2H4O,ethylen-o 4.951-16
 CH3CHO,ethanal  4.916-13
 CH3COOH         9.416-15
 C2H5            2.355-14
 C2H6            3.521-15
 C2O             4.3259-9
 *C3             1.618-14
 C3H3,2-propynl  3.835-14
 C3H4,allene     8.770-16
 C3H4,propyne    1.842-15
 C3O2            2.746-11
 C4H2,butadiyne  2.360-16
 *H              3.4827-2
 HCO             2.2341-5
 HCCO            1.0934-9
 HO2             1.7896-8
 *H2             4.2657-1
 HCHO,formaldehy 1.7045-6
 HCOOH           1.6810-7
 H2O             4.6150-2
 H2O2            7.4674-9
 *O              6.7926-5
 *OH             1.4964-3
 *O2             2.8815-6
 O3              3.992-14

  * THERMODYNAMIC PROPERTIES FITTED TO 20000.K









         THERMODYNAMIC EQUILIBRIUM COMBUSTION PROPERTIES AT ASSIGNED

                                     VOLUME

 CASE =                

             REACTANT                       MOLES         ENERGY      TEMP
                                                         KJ/KG-MOL      K
 FUEL        C2H4                         1.0000000     50085.152    300.000
 OXIDANT     O2                           3.0000000     -2439.995    300.000

 O/F=    1.22212  %FUEL= 45.001997  R,EQ.RATIO= 2.800000  PHI,EQ.RATIO= 2.800000

 THERMODYNAMIC PROPERTIES

 P, BAR            19.758
 T, K             3060.14
 RHO, KG/CU M    1.1925 0
 H, KJ/KG         2418.41
 U, KJ/KG          761.51
 G, KJ/KG        -42065.5
 S, KJ/(KG)(K)    14.5366

 M, (1/n)          15.356
 (dLV/dLP)t      -1.00729
 (dLV/dLT)p        1.1324
 Cp, KJ/(KG)(K)    3.7479
 GAMMAs            1.2165
 SON VEL,M/SEC     1419.7

 MOLE FRACTIONS

 *C              5.1536-9
 *CH             6.2401-9
 CH2             4.6082-8
 CH3             3.3658-7
 CH2OH           1.2065-9
 CH3O            2.966-10
 CH4             3.5071-7
 CH3OH           2.863-10
 *CO             4.8830-1
 *CO2            4.3594-3
 COOH            2.3462-7
 *C2             3.943-12
 C2H             5.290-10
 C2H2,acetylene  4.3719-8
 C2H2,vinylidene 1.580-10
 CH2CO,ketene    1.0190-8
 O(CH)2O         1.749-12
 HO(CO)2OH       1.664-16
 C2H3,vinyl      3.436-11
 CH3CO,acetyl    1.355-11
 C2H4            5.689-11
 C2H4O,ethylen-o 9.214-16
 CH3CHO,ethanal  1.031-12
 CH3COOH         1.222-14
 C2H5            7.885-14
 C2H6            1.465-14
 C2O             5.3051-9
 *C3             4.477-14
 C3H3,1-propynl  3.318-16
 C3H3,2-propynl  1.818-13
 C3H4,allene     4.864-15
 C3H4,propyne    1.029-14
 C3H4,cyclo-     1.247-16
 C3O2            4.331-11
 C4H2,butadiyne  1.770-15
 *H              2.8541-2
 HCO             1.9759-5
 HCCO            1.5375-9
 HO2             4.2671-9
 *H2             4.4795-1
 HCHO,formaldehy 1.7835-6
 HCOOH           1.0912-7
 H2O             3.0085-2
 H2O2            2.1047-9
 *O              2.5696-5
 *OH             7.2056-4
 *O2             6.7990-7
 O3              3.835-15

  * THERMODYNAMIC PROPERTIES FITTED TO 20000.K









         THERMODYNAMIC EQUILIBRIUM COMBUSTION PROPERTIES AT ASSIGNED

                                     VOLUME

 CASE =                

             REACTANT                       MOLES         ENERGY      TEMP
                                                         KJ/KG-MOL      K
 FUEL        C2H4                         1.0000000     50085.152    300.000
 OXIDANT     O2                           3.0000000     -2439.995    300.000

 O/F=    1.17998  %FUEL= 45.871951  R,EQ.RATIO= 2.900000  PHI,EQ.RATIO= 2.900000

 THERMODYNAMIC PROPERTIES

 P, BAR            19.546
 T, K             2979.15
 RHO, KG/CU M    1.1925 0
 H, KJ/KG         2416.86
 U, KJ/KG          777.71
 G, KJ/KG        -41061.4
 S, KJ/(KG)(K)    14.5942

 M, (1/n)          15.112
 (dLV/dLP)t      -1.00578
 (dLV/dLT)p        1.1073
 Cp, KJ/(KG)(K)    3.5542
 GAMMAs            1.2255
 SON VEL,M/SEC     1417.3

 MOLE FRACTIONS

 *C              5.9332-9
 *CH             8.3305-9
 CH2             7.8590-8
 CH3             7.5761-7
 CH2OH           1.1585-9
 CH3O            2.702-10
 CH4             1.0008-6
 CH3OH           3.393-10
 *CO             4.9208-1
 *CO2            2.0985-3
 COOH            9.4909-8
 *C2             9.934-12
 C2H             1.7844-9
 C2H2,acetylene  2.1505-7
 C2H2,vinylidene 6.463-10
 CH2CO,ketene    2.4175-8
 O(CH)2O         1.744-12
 C2H3,vinyl      1.611-10
 CH3CO,acetyl    3.112-11
 C2H4            3.515-10
 C2H4O,ethylen-o 2.252-15
 CH3CHO,ethanal  2.864-12
 CH3COOH         1.581-14
 C2H5            4.621-13
 C2H6            1.080-13
 C2H5OH          1.809-16
 C2O             8.4321-9
 *C3             2.794-13
 C3H3,1-propynl  3.249-15
 C3H3,2-propynl  1.998-12
 C3H4,allene     6.305-14
 C3H4,propyne    1.345-13
 C3H4,cyclo-     1.475-15
 C3H5,allyl      1.098-15
 C3H6,propylene  2.629-16
 C3O2            9.007-11
 C4H2,butadiyne  4.099-14
 *H              2.2942-2
 HCO             1.7193-5
 HCCO            2.8173-9
 HO2             5.531-10
 *H2             4.6791-1
 HCHO,formaldehy 1.8515-6
 HCOOH           5.2907-8
 H2O             1.4683-2
 H2O2            3.251-10
 *O              7.0476-6
 *OH             2.5497-4
 *O2             8.7570-8
 O3              1.469-16

  * THERMODYNAMIC PROPERTIES FITTED TO 20000.K









         THERMODYNAMIC EQUILIBRIUM COMBUSTION PROPERTIES AT ASSIGNED

                                     VOLUME

 CASE =                

             REACTANT                       MOLES         ENERGY      TEMP
                                                         KJ/KG-MOL      K
 FUEL        C2H4                         1.0000000     50085.152    300.000
 OXIDANT     O2                           3.0000000     -2439.995    300.000

 O/F=    1.14065  %FUEL= 46.714812  R,EQ.RATIO= 3.000000  PHI,EQ.RATIO= 3.000000

 THERMODYNAMIC PROPERTIES

 P, BAR            19.292
 T, K             2896.60
 RHO, KG/CU M    1.1925 0
 H, KJ/KG         2411.23
 U, KJ/KG          793.40
 G, KJ/KG        -39979.0
 S, KJ/(KG)(K)    14.6345

 M, (1/n)          14.887
 (dLV/dLP)t      -1.00496
 (dLV/dLT)p        1.0865
 Cp, KJ/(KG)(K)    3.3825
 GAMMAs            1.2345
 SON VEL,M/SEC     1413.2

 MOLE FRACTIONS

 *C              9.7527-8
 *CH             1.5976-7
 CH2             1.9509-6
 CH3             2.5228-5
 CH2OH           1.0892-9
 CH3O            2.403-10
 CH4             4.2864-5
 CH3OH           3.982-10
 *CO             4.9515-1
 *CO2            6.7395-5
 COOH            2.5138-9
 *C2             5.3513-9
 C2H             1.3096-6
 C2H2,acetylene  2.3571-4
 C2H2,vinylidene 5.8058-7
 CH2CO,ketene    8.5395-7
 O(CH)2O         1.713-12
 C2H3,vinyl      1.6673-7
 CH3CO,acetyl    1.0567-9
 C2H4            4.8738-7
 C2H4O,ethylen-o 8.132-14
 CH3CHO,ethanal  1.187-10
 CH3COOH         2.036-14
 C2H5            6.022-10
 C2H6            1.792-10
 C2H5OH          8.288-15
 CH3OCH3         1.590-16
 C2O             1.9557-7
 *C3             5.6335-9
 C3H3,1-propynl  1.049-10
 C3H3,2-propynl  7.3042-8
 C3H4,allene     2.7388-9
 C3H4,propyne    5.8933-9
 C3H4,cyclo-     5.808-11
 C3H5,allyl      4.942-11
 C3H6,propylene  1.427-11
 C3H6,cyclo-     1.028-13
 C3H6O,acetone   8.964-16
 C3H6O,propanal  1.212-15
 C3H7,n-propyl   6.550-15
 C3H7,i-propyl   4.192-15
 C3H8            1.884-15
 C3O2            2.7827-9
 *C4             1.427-12
 C4H2,butadiyne  4.7374-8
 C4H4,1,3-cyclo- 8.839-14
 C4H6,butadiene  3.911-13
 C4H6,1butyne    6.727-14
 C4H6,2butyne    3.368-14
 C4H6,cyclo-     1.430-15
 C4H8,1-butene   1.373-16
 *C5             7.850-13
 C5H6,1,3cyclo-  1.065-15
 C6H2            1.008-11
 C6H6            1.768-16
 *H              1.8068-2
 HCO             1.4694-5
 HCCO            7.5744-8
 HO2             3.050-13
 *H2             4.8590-1
 HCHO,formaldehy 1.9040-6
 HCOOH           1.6947-9
 H2O             4.7496-4
 H2O2            2.153-13
 *O              1.2390-7
 *OH             5.8647-6
 *O2             4.822-11

  * THERMODYNAMIC PROPERTIES FITTED TO 20000.K









         THERMODYNAMIC EQUILIBRIUM COMBUSTION PROPERTIES AT ASSIGNED

                                     VOLUME

 CASE =                

             REACTANT                       MOLES         ENERGY      TEMP
                                                         KJ/KG-MOL      K
 FUEL        C2H4                         1.0000000     50085.152    300.000
 OXIDANT     O2                           3.0000000     -2439.995    300.000

 O/F=    1.10385  %FUEL= 47.531825  R,EQ.RATIO= 3.100000  PHI,EQ.RATIO= 3.100000

 THERMODYNAMIC PROPERTIES

 P, BAR            18.715
 T, K             2812.67
 RHO, KG/CU M    1.1925 0
 H, KJ/KG         2378.10
 U, KJ/KG          808.61
 G, KJ/KG        -38790.3
 S, KJ/(KG)(K)    14.6368

 M, (1/n)          14.900
 (dLV/dLP)t      -1.00394
 (dLV/dLT)p        1.0706
 Cp, KJ/(KG)(K)    3.2454
 GAMMAs            1.2394
 SON VEL,M/SEC     1394.7

 MOLE FRACTIONS

 *C              2.7215-7
 *CH             5.1338-7
 CH2             8.0700-6
 CH3             1.3968-4
 CH2OH           9.267-10
 CH3O            1.927-10
 CH4             3.0405-4
 CH3OH           4.200-10
 *CO             4.8852-1
 *CO2            1.1668-5
 COOH            3.449-10
 *C2             8.6179-8
 C2H             2.8711-5
 C2H2,acetylene  7.7651-3
 C2H2,vinylidene 1.5426-5
 CH2CO,ketene    4.9849-6
 O(CH)2O         1.512-12
 C2H3,vinyl      5.0349-6
 CH3CO,acetyl    5.7683-9
 C2H4            1.9674-5
 C2H4O,ethylen-o 4.628-13
 CH3CHO,ethanal  7.836-10
 CH3COOH         2.290-14
 C2H5            2.2175-8
 C2H6            8.3570-9
 C2H5OH          5.796-14
 CH3OCH3         1.046-15
 C2O             7.6293-7
 *C3             6.0398-7
 C3H3,1-propynl  1.7330-8
 C3H3,2-propynl  1.3805-5
 C3H4,allene     6.0815-7
 C3H4,propyne    1.3209-6
 C3H4,cyclo-     1.1603-8
 C3H5,allyl      1.1127-8
 C3H6,propylene  3.8323-9
 C3H6,cyclo-     2.630-11
 C3H6O,acetone   4.038-14
 C3H6O,propanal  5.204-14
 C3H7,n-propyl   1.573-12
 C3H7,i-propyl   1.023-12
 C3H8            5.744-13
 C3O2            1.4265-8
 *C4             7.694-10
 C4H2,butadiyne  5.1005-5
 C4H4,1,3-cyclo- 1.013-10
 C4H6,butadiene  5.849-10
 C4H6,1butyne    9.876-11
 C4H6,2butyne    5.081-11
 C4H6,cyclo-     2.108-12
 C4H8,1-butene   2.413-13
 C4H8,cis2-buten 7.779-14
 C4H8,tr2-butene 8.818-14
 C4H8,isobutene  8.729-14
 C4H8,cyclo-     2.123-16
 C4H9,n-butyl    1.864-16
 C4H9,s-butyl    1.167-16
 *C5             2.7233-9
 C5H6,1,3cyclo-  1.057-11
 C5H8,cyclo-     1.806-15
 C6H2            3.5397-7
 C6H5,phenyl     4.625-12
 C6H5O,phenoxy   2.843-16
 C6H6            1.232-11
 C6H5OH,phenol   2.801-16
 C7H7,benzyl     2.001-14
 C7H8            3.352-15
 C8H8,styrene    7.066-16
 *H              1.3851-2
 HCO             1.1859-5
 HCCO            3.3780-7
 HO2             4.805-15
 *H2             4.8916-1
 HCHO,formaldehy 1.8299-6
 HCOOH           2.784-10
 H2O             8.1699-5
 H2O2            4.030-15
 *O              1.1622-8
 *OH             7.1638-7
 *O2             7.772-13

  * THERMODYNAMIC PROPERTIES FITTED TO 20000.K









         THERMODYNAMIC EQUILIBRIUM COMBUSTION PROPERTIES AT ASSIGNED

                                     VOLUME

 CASE =                

             REACTANT                       MOLES         ENERGY      TEMP
                                                         KJ/KG-MOL      K
 FUEL        C2H4                         1.0000000     50085.152    300.000
 OXIDANT     O2                           3.0000000     -2439.995    300.000

 O/F=    1.06936  %FUEL= 48.324163  R,EQ.RATIO= 3.200000  PHI,EQ.RATIO= 3.200000

 THERMODYNAMIC PROPERTIES

 P, BAR            18.213
 T, K             2739.11
 RHO, KG/CU M    1.1925 0
 H, KJ/KG         2350.75
 U, KJ/KG          823.36
 G, KJ/KG        -37725.1
 S, KJ/(KG)(K)    14.6310

 M, (1/n)          14.911
 MW, MOL WT        14.855
 (dLV/dLP)t      -1.00340
 (dLV/dLT)p        1.0558
 Cp, KJ/(KG)(K)    3.8313
 GAMMAs            1.1889
 SON VEL,M/SEC     1347.5

 MOLE FRACTIONS

 *C              1.8231-7
 *CH             3.9257-7
 CH2             7.8077-6
 CH3             1.7737-4
 CH2OH           7.971-10
 CH3O            1.570-10
 CH4             4.8719-4
 CH3OH           4.416-10
 *CO             4.7971-1
 *CO2            8.7829-6
 COOH            2.096-10
 *C2             7.6177-8
 C2H             3.3840-5
 C2H2,acetylene  1.3373-2
 C2H2,vinylidene 2.1753-5
 CH2CO,ketene    6.6355-6
 O(CH)2O         1.343-12
 C2H3,vinyl      8.0092-6
 CH3CO,acetyl    7.2295-9
 C2H4            4.1034-5
 C2H4O,ethylen-o 6.041-13
 CH3CHO,ethanal  1.1727-9
 CH3COOH         2.556-14
 C2H5            4.2542-8
 C2H6            1.9989-8
 C2H5OH          9.185-14
 CH3OCH3         1.567-15
 C2O             6.9685-7
 *C3             8.0395-7
 C3H3,1-propynl  3.4641-8
 C3H3,2-propynl  3.1254-5
 C3H4,allene     1.6016-6
 C3H4,propyne    3.5087-6
 C3H4,cyclo-     2.7704-8
 C3H5,allyl      2.9738-8
 C3H6,propylene  1.2080-8
 C3H6,cyclo-     7.926-11
 C3H6O,propylox  1.221-16
 C3H6O,acetone   9.353-14
 C3H6O,propanal  1.153-13
 C3H7,n-propyl   4.478-12
 C3H7,i-propyl   2.957-12
 C3H8            2.043-12
 C3O2            1.6777-8
 *C4             1.1915-9
 C4H2,butadiyne  1.5037-4
 C4H4,1,3-cyclo- 3.176-10
 C4H6,butadiene  2.3647-9
 C4H6,1butyne    3.906-10
 C4H6,2butyne    2.062-10
 C4H6,cyclo-     8.377-12
 C4H8,1-butene   1.132-12
 C4H8,cis2-buten 3.700-13
 C4H8,tr2-butene 4.191-13
 C4H8,isobutene  4.175-13
 C4H8,cyclo-     9.581-16
 C4H9,n-butyl    7.999-16
 C4H9,i-butyl    3.816-16
 C4H9,s-butyl    5.022-16
 C4H10,n-butane  2.215-16
 *C5             6.1529-9
 C5H6,1,3cyclo-  6.396-11
 C5H8,cyclo-     1.201-14
 C6H2            1.7843-6
 C6H5,phenyl     3.347-11
 C6H5O,phenoxy   1.586-15
 C6H6            1.181-10
 C6H5OH,phenol   1.829-15
 C7H7,benzyl     2.405-13
 C7H8            4.861-14
 C8H8,styrene    1.365-14
 C10H8,naphthale 6.771-16
 *H              1.0795-2
 HCO             9.6831-6
 HCCO            3.4977-7
 HO2             1.511-15
 *H2             4.9136-1
 HCHO,formaldehy 1.7598-6
 HCOOH           2.003-10
 H2O             6.1338-5
 H2O2            1.489-15
 *O              4.9605-9
 *OH             3.9103-7
 *O2             2.492-13
 C(gr)           3.6987-3

  * THERMODYNAMIC PROPERTIES FITTED TO 20000.K









         THERMODYNAMIC EQUILIBRIUM COMBUSTION PROPERTIES AT ASSIGNED

                                     VOLUME

 CASE =                

             REACTANT                       MOLES         ENERGY      TEMP
                                                         KJ/KG-MOL      K
 FUEL        C2H4                         1.0000000     50085.152    300.000
 OXIDANT     O2                           3.0000000     -2439.995    300.000

 O/F=    1.03695  %FUEL= 49.092926  R,EQ.RATIO= 3.300000  PHI,EQ.RATIO= 3.300000

 THERMODYNAMIC PROPERTIES

 P, BAR            18.012
 T, K             2707.59
 RHO, KG/CU M    1.1925 0
 H, KJ/KG         2348.16
 U, KJ/KG          837.67
 G, KJ/KG        -37245.9
 S, KJ/(KG)(K)    14.6234

 M, (1/n)          14.904
 MW, MOL WT        14.590
 (dLV/dLP)t      -1.00317
 (dLV/dLT)p        1.0514
 Cp, KJ/(KG)(K)    3.7633
 GAMMAs            1.1915
 SON VEL,M/SEC     1341.5

 MOLE FRACTIONS

 *C              1.2579-7
 *CH             2.8973-7
 CH2             6.4514-6
 CH3             1.6681-4
 CH2OH           7.455-10
 CH3O            1.434-10
 CH4             5.1263-4
 CH3OH           4.556-10
 *CO             4.6412-1
 *CO2            8.9303-6
 COOH            1.953-10
 *C2             4.9877-8
 C2H             2.5397-5
 C2H2,acetylene  1.1982-2
 C2H2,vinylidene 1.7829-5
 CH2CO,ketene    6.2705-6
 O(CH)2O         1.254-12
 C2H3,vinyl      6.9850-6
 CH3CO,acetyl    6.7078-9
 C2H4            4.0715-5
 C2H4O,ethylen-o 5.755-13
 CH3CHO,ethanal  1.1873-9
 CH3COOH         2.686-14
 C2H5            4.1012-8
 C2H6            2.1439-8
 C2H5OH          9.701-14
 CH3OCH3         1.614-15
 C2O             5.4767-7
 *C3             5.2967-7
 C3H3,1-propynl  2.8054-8
 C3H3,2-propynl  2.6753-5
 C3H4,allene     1.4789-6
 C3H4,propyne    3.2524-6
 C3H4,cyclo-     2.4490-8
 C3H5,allyl      2.7876-8
 C3H6,propylene  1.2289-8
 C3H6,cyclo-     7.903-11
 C3H6O,propylox  1.197-16
 C3H6O,acetone   9.812-14
 C3H6O,propanal  1.186-13
 C3H7,n-propyl   4.389-12
 C3H7,i-propyl   2.918-12
 C3H8            2.231-12
 C3O2            1.4640-8
 *C4             7.046-10
 C4H2,butadiyne  1.2043-4
 C4H4,1,3-cyclo- 2.658-10
 C4H6,butadiene  2.2571-9
 C4H6,1butyne    3.688-10
 C4H6,2butyne    1.969-10
 C4H6,cyclo-     7.926-12
 C4H8,1-butene   1.172-12
 C4H8,cis2-buten 3.856-13
 C4H8,tr2-butene 4.366-13
 C4H8,isobutene  4.363-13
 C4H8,cyclo-     9.756-16
 C4H9,n-butyl    8.029-16
 C4H9,i-butyl    3.847-16
 C4H9,s-butyl    5.048-16
 C4H10,n-butane  2.459-16
 *C5             3.6104-9
 C5H6,1,3cyclo-  6.120-11
 C5H8,cyclo-     1.219-14
 C6H2            1.2767-6
 C6H5,phenyl     2.885-11
 C6H5O,phenoxy   1.440-15
 C6H6            1.163-10
 C6H5OH,phenol   1.796-15
 C7H7,benzyl     2.217-13
 C7H8            4.912-14
 C8H8,styrene    1.313-14
 C10H8,naphthale 6.484-16
 *H              9.5792-3
 HCO             8.7022-6
 HCCO            2.9309-7
 HO2             1.252-15
 *H2             4.9222-1
 HCHO,formaldehy 1.7155-6
 HCOOH           2.029-10
 H2O             6.3844-5
 H2O2            1.337-15
 *O              3.9493-9
 *OH             3.5023-7
 *O2             2.067-13
 C(gr)           2.1070-2

  * THERMODYNAMIC PROPERTIES FITTED TO 20000.K









         THERMODYNAMIC EQUILIBRIUM COMBUSTION PROPERTIES AT ASSIGNED

                                     VOLUME

 CASE =                

             REACTANT                       MOLES         ENERGY      TEMP
                                                         KJ/KG-MOL      K
 FUEL        C2H4                         1.0000000     50085.152    300.000
 OXIDANT     O2                           3.0000000     -2439.995    300.000

 O/F=    1.00645  %FUEL= 49.839151  R,EQ.RATIO= 3.400000  PHI,EQ.RATIO= 3.400000

 THERMODYNAMIC PROPERTIES

 P, BAR            17.816
 T, K             2676.82
 RHO, KG/CU M    1.1925 0
 H, KJ/KG         2345.58
 U, KJ/KG          851.56
 G, KJ/KG        -36777.2
 S, KJ/(KG)(K)    14.6154

 M, (1/n)          14.897
 MW, MOL WT        14.343
 (dLV/dLP)t      -1.00296
 (dLV/dLT)p        1.0473
 Cp, KJ/(KG)(K)    3.7001
 GAMMAs            1.1940
 SON VEL,M/SEC     1335.6

 MOLE FRACTIONS

 *C              8.6888-8
 *CH             2.1394-7
 CH2             5.3301-6
 CH3             1.5677-4
 CH2OH           6.970-10
 CH3O            1.310-10
 CH4             5.3884-4
 CH3OH           4.696-10
 *CO             4.4956-1
 *CO2            9.0955-6
 COOH            1.823-10
 *C2             3.2689-8
 C2H             1.9070-5
 C2H2,acetylene  1.0735-2
 C2H2,vinylidene 1.4610-5
 CH2CO,ketene    5.9271-6
 O(CH)2O         1.172-12
 C2H3,vinyl      6.0877-6
 CH3CO,acetyl    6.2227-9
 C2H4            4.0351-5
 C2H4O,ethylen-o 5.480-13
 CH3CHO,ethanal  1.2012-9
 CH3COOH         2.823-14
 C2H5            3.9472-8
 C2H6            2.2944-8
 C2H5OH          1.023-13
 CH3OCH3         1.660-15
 C2O             4.3101-7
 *C3             3.4926-7
 C3H3,1-propynl  2.2705-8
 C3H3,2-propynl  2.2885-5
 C3H4,allene     1.3641-6
 C3H4,propyne    3.0113-6
 C3H4,cyclo-     2.1625-8
 C3H5,allyl      2.6088-8
 C3H6,propylene  1.2474-8
 C3H6,cyclo-     7.865-11
 C3H6O,propylox  1.171-16
 C3H6O,acetone   1.028-13
 C3H6O,propanal  1.217-13
 C3H7,n-propyl   4.292-12
 C3H7,i-propyl   2.872-12
 C3H8            2.428-12
 C3O2            1.2798-8
 *C4             4.171-10
 C4H2,butadiyne  9.6440-5
 C4H4,1,3-cyclo- 2.223-10
 C4H6,butadiene  2.1513-9
 C4H6,1butyne    3.473-10
 C4H6,2butyne    1.877-10
 C4H6,cyclo-     7.484-12
 C4H8,1-butene   1.211-12
 C4H8,cis2-buten 4.006-13
 C4H8,tr2-butene 4.535-13
 C4H8,isobutene  4.544-13
 C4H8,cyclo-     9.904-16
 C4H9,n-butyl    8.032-16
 C4H9,i-butyl    3.864-16
 C4H9,s-butyl    5.057-16
 C4H10,n-butane  2.720-16
 *C5             2.1205-9
 C5H6,1,3cyclo-  5.844-11
 C5H8,cyclo-     1.234-14
 C6H2            9.1337-7
 C6H5,phenyl     2.483-11
 C6H5O,phenoxy   1.307-15
 C6H6            1.143-10
 C6H5OH,phenol   1.762-15
 C7H7,benzyl     2.039-13
 C7H8            4.948-14
 C8H8,styrene    1.260-14
 C10H8,naphthale 6.190-16
 *H              8.5043-3
 HCO             7.8266-6
 HCCO            2.4580-7
 HO2             1.039-15
 *H2             4.9298-1
 HCHO,formaldehy 1.6727-6
 HCOOH           2.058-10
 H2O             6.6469-5
 H2O2            1.201-15
 *O              3.1490-9
 *OH             3.1395-7
 *O2             1.717-13
 C(gr)           3.7219-2

  * THERMODYNAMIC PROPERTIES FITTED TO 20000.K









         THERMODYNAMIC EQUILIBRIUM COMBUSTION PROPERTIES AT ASSIGNED

                                     VOLUME

 CASE =                

             REACTANT                       MOLES         ENERGY      TEMP
                                                         KJ/KG-MOL      K
 FUEL        C2H4                         1.0000000     50085.152    300.000
 OXIDANT     O2                           3.0000000     -2439.995    300.000

 O/F=    0.97770  %FUEL= 50.563815  R,EQ.RATIO= 3.500000  PHI,EQ.RATIO= 3.500000

 THERMODYNAMIC PROPERTIES

 P, BAR            17.624
 T, K             2646.77
 RHO, KG/CU M    1.1925 0
 H, KJ/KG         2343.02
 U, KJ/KG          865.05
 G, KJ/KG        -36319.0
 S, KJ/(KG)(K)    14.6072

 M, (1/n)          14.890
 MW, MOL WT        14.112
 (dLV/dLP)t      -1.00279
 (dLV/dLT)p        1.0435
 Cp, KJ/(KG)(K)    3.6416
 GAMMAs            1.1965
 SON VEL,M/SEC     1329.8

 MOLE FRACTIONS

 *C              6.0083-8
 *CH             1.5807-7
 CH2             4.4035-6
 CH3             1.4725-4
 CH2OH           6.516-10
 CH3O            1.196-10
 CH4             5.6585-4
 CH3OH           4.837-10
 *CO             4.3593-1
 *CO2            9.2781-6
 COOH            1.703-10
 *C2             2.1448-8
 C2H             1.4326-5
 C2H2,acetylene  9.6160-3
 C2H2,vinylidene 1.1972-5
 CH2CO,ketene    5.6040-6
 O(CH)2O         1.096-12
 C2H3,vinyl      5.3028-6
 CH3CO,acetyl    5.7723-9
 C2H4            3.9947-5
 C2H4O,ethylen-o 5.215-13
 CH3CHO,ethanal  1.2146-9
 CH3COOH         2.966-14
 C2H5            3.7933-8
 C2H6            2.4506-8
 C2H5OH          1.077-13
 CH3OCH3         1.704-15
 C2O             3.3967-7
 *C3             2.3051-7
 C3H3,1-propynl  1.8367-8
 C3H3,2-propynl  1.9566-5
 C3H4,allene     1.2569-6
 C3H4,propyne    2.7851-6
 C3H4,cyclo-     1.9077-8
 C3H5,allyl      2.4381-8
 C3H6,propylene  1.2637-8
 C3H6,cyclo-     7.812-11
 C3H6O,propylox  1.145-16
 C3H6O,acetone   1.075-13
 C3H6O,propanal  1.248-13
 C3H7,n-propyl   4.186-12
 C3H7,i-propyl   2.820-12
 C3H8            2.635-12
 C3O2            1.1207-8
 *C4             2.472-10
 C4H2,butadiyne  7.7223-5
 C4H4,1,3-cyclo- 1.857-10
 C4H6,butadiene  2.0480-9
 C4H6,1butyne    3.266-10
 C4H6,2butyne    1.785-10
 C4H6,cyclo-     7.053-12
 C4H8,1-butene   1.247-12
 C4H8,cis2-buten 4.150-13
 C4H8,tr2-butene 4.696-13
 C4H8,isobutene  4.720-13
 C4H8,cyclo-     1.003-15
 C4H9,n-butyl    8.009-16
 C4H9,i-butyl    3.868-16
 C4H9,s-butyl    5.049-16
 C4H10,n-butane  2.997-16
 *C5             1.2468-9
 C5H6,1,3cyclo-  5.570-11
 C5H8,cyclo-     1.246-14
 C6H2            6.5348-7
 C6H5,phenyl     2.134-11
 C6H5O,phenoxy   1.184-15
 C6H6            1.121-10
 C6H5OH,phenol   1.725-15
 C7H7,benzyl     1.871-13
 C7H8            4.970-14
 C8H8,styrene    1.205-14
 C10H8,naphthale 5.893-16
 *H              7.5534-3
 HCO             7.0443-6
 HCCO            2.0630-7
 HO2             8.637-16
 *H2             4.9365-1
 HCHO,formaldehy 1.6313-6
 HCOOH           2.088-10
 H2O             6.9217-5
 H2O2            1.080-15
 *O              2.5146-9
 *OH             2.8167-7
 *O2             1.429-13
 C(gr)           5.2267-2

  * THERMODYNAMIC PROPERTIES FITTED TO 20000.K









         THERMODYNAMIC EQUILIBRIUM COMBUSTION PROPERTIES AT ASSIGNED

                                     VOLUME

 CASE =                

             REACTANT                       MOLES         ENERGY      TEMP
                                                         KJ/KG-MOL      K
 FUEL        C2H4                         1.0000000     50085.152    300.000
 OXIDANT     O2                           3.0000000     -2439.995    300.000

 O/F=    0.95054  %FUEL= 51.267839  R,EQ.RATIO= 3.600000  PHI,EQ.RATIO= 3.600000

 THERMODYNAMIC PROPERTIES

 P, BAR            17.437
 T, K             2617.45
 RHO, KG/CU M    1.1925 0
 H, KJ/KG         2340.46
 U, KJ/KG          878.16
 G, KJ/KG        -35870.9
 S, KJ/(KG)(K)    14.5987

 M, (1/n)          14.883
 MW, MOL WT        13.896
 (dLV/dLP)t      -1.00263
 (dLV/dLT)p        1.0402
 Cp, KJ/(KG)(K)    3.5875
 GAMMAs            1.1988
 SON VEL,M/SEC     1324.0

 MOLE FRACTIONS

 *C              4.1597-8
 *CH             1.1687-7
 CH2             3.6383-6
 CH3             1.3823-4
 CH2OH           6.091-10
 CH3O            1.092-10
 CH4             5.9370-4
 CH3OH           4.980-10
 *CO             4.2313-1
 *CO2            9.4780-6
 COOH            1.594-10
 *C2             1.4089-8
 C2H             1.0769-5
 C2H2,acetylene  8.6137-3
 C2H2,vinylidene 9.8096-6
 CH2CO,ketene    5.3000-6
 O(CH)2O         1.026-12
 C2H3,vinyl      4.6172-6
 CH3CO,acetyl    5.3545-9
 C2H4            3.9508-5
 C2H4O,ethylen-o 4.961-13
 CH3CHO,ethanal  1.2274-9
 CH3COOH         3.116-14
 C2H5            3.6408-8
 C2H6            2.6126-8
 C2H5OH          1.132-13
 CH3OCH3         1.747-15
 C2O             2.6806-7
 *C3             1.5228-7
 C3H3,1-propynl  1.4852-8
 C3H3,2-propynl  1.6722-5
 C3H4,allene     1.1571-6
 C3H4,propyne    2.5738-6
 C3H4,cyclo-     1.6815-8
 C3H5,allyl      2.2758-8
 C3H6,propylene  1.2781-8
 C3H6,cyclo-     7.747-11
 C3H6O,propylox  1.117-16
 C3H6O,acetone   1.122-13
 C3H6O,propanal  1.278-13
 C3H7,n-propyl   4.075-12
 C3H7,i-propyl   2.764-12
 C3H8            2.852-12
 C3O2            9.8292-9
 *C4             1.467-10
 C4H2,butadiyne  6.1839-5
 C4H4,1,3-cyclo- 1.550-10
 C4H6,butadiene  1.9476-9
 C4H6,1butyne    3.065-10
 C4H6,2butyne    1.695-10
 C4H6,cyclo-     6.637-12
 C4H8,1-butene   1.280-12
 C4H8,cis2-buten 4.289-13
 C4H8,tr2-butene 4.852-13
 C4H8,isobutene  4.890-13
 C4H8,cyclo-     1.013-15
 C4H9,n-butyl    7.963-16
 C4H9,i-butyl    3.862-16
 C4H9,s-butyl    5.027-16
 C4H10,n-butane  3.292-16
 *C5             7.340-10
 C5H6,1,3cyclo-  5.300-11
 C5H8,cyclo-     1.254-14
 C6H2            4.6763-7
 C6H5,phenyl     1.832-11
 C6H5O,phenoxy   1.073-15
 C6H6            1.098-10
 C6H5OH,phenol   1.687-15
 C7H7,benzyl     1.713-13
 C7H8            4.980-14
 C8H8,styrene    1.149-14
 C10H8,naphthale 5.597-16
 *H              6.7121-3
 HCO             6.3450-6
 HCCO            1.7330-7
 HO2             7.190-16
 *H2             4.9424-1
 HCHO,formaldehy 1.5915-6
 HCOOH           2.121-10
 H2O             7.2093-5
 H2O2            9.728-16
 *O              2.0110-9
 *OH             2.5292-7
 *O2             1.192-13
 C(gr)           6.6319-2

  * THERMODYNAMIC PROPERTIES FITTED TO 20000.K



