
 *******************************************************************************

         NASA-GLENN CHEMICAL EQUILIBRIUM PROGRAM CEA2, MAY 21, 2004
                   BY  BONNIE MCBRIDE AND SANFORD GORDON
      REFS: NASA RP-1311, PART I, 1994 AND NASA RP-1311, PART II, 1996

 *******************************************************************************



 problem    phi,eq.ratio=2.1,2.2,2.3,2.4,2.5,2.6,2.7,2.8,2.9,3,3.1,3.2,3.3,3.4,3.
 5,3.6,
       uv   rho,kg/m**3=1.1623,  t,k=3800
 react
   fuel=C2H6 moles=1  t,k=300
   oxid=O2 moles=3.5  t,k=300
   oxid=N2 moles=13.1667  t,k=300
 output  short   trace=1e-16
 end




         THERMODYNAMIC EQUILIBRIUM COMBUSTION PROPERTIES AT ASSIGNED

                                     VOLUME

 CASE =                

             REACTANT                       MOLES         ENERGY      TEMP
                                                         KJ/KG-MOL      K
 FUEL        C2H6                         1.0000000    -86248.563    300.000
 OXIDANT     O2                           3.5000000     -2439.995    300.000
 OXIDANT     N2                          13.1667000     -2440.472    300.000

 O/F=    7.61485  %FUEL= 11.607858  R,EQ.RATIO= 2.100000  PHI,EQ.RATIO= 2.100000

 THERMODYNAMIC PROPERTIES

 P, BAR            8.1559
 T, K             1939.70
 RHO, KG/CU M    1.1623 0
 H, KJ/KG          293.98
 U, KJ/KG         -407.72
 G, KJ/KG        -19656.9
 S, KJ/(KG)(K)    10.2856

 M, (1/n)          22.984
 (dLV/dLP)t      -1.00005
 (dLV/dLT)p        1.0012
 Cp, KJ/(KG)(K)    1.6629
 GAMMAs            1.2788
 SON VEL,M/SEC      947.3

 MOLE FRACTIONS

 *C              3.246-16
 *CH             2.582-15
 CH2             9.328-13
 CH3             7.144-10
 CH2OH           3.123-12
 CH3O            2.810-13
 CH4             3.9438-8
 CH3OH           1.974-11
 *CN             2.407-11
 *CO             1.5666-1
 *CO2            2.0793-2
 COOH            7.7290-9
 C2H             1.314-16
 C2H2,acetylene  9.504-12
 C2H2,vinylidene 6.274-16
 CH2CO,ketene    3.685-11
 O(CH)2O         5.979-15
 C2H3,vinyl      7.293-16
 CH3CN           9.392-14
 CH3CO,acetyl    7.394-15
 C2H4            1.266-13
 CH3CHO,ethanal  8.954-15
 CH3COOH         9.189-16
 C2H6            1.159-16
 OCCN            3.216-14
 C2N2            6.230-14
 C2O             4.872-14
 C3O2            1.899-14
 *H              1.5326-4
 HCN             1.3267-6
 HCO             7.9441-8
 HCCO            7.964-14
 HNC             5.9571-8
 HNCO            2.2046-7
 HNO             1.729-10
 HNO2            4.302-13
 HO2             2.716-12
 *H2             1.6858-1
 HCHO,formaldehy 8.9536-8
 HCOOH           5.0278-8
 H2O             9.7500-2
 H2O2            1.548-11
 *N              9.599-11
 NCO             8.743-11
 *NH             8.239-10
 NH2             2.9674-8
 NH3             9.4594-6
 NH2OH           1.455-12
 *NO             4.3175-7
 NO2             1.895-13
 *N2             5.5629-1
 NCN             3.188-16
 N2H2            1.519-12
 N2H4            2.336-15
 N2O             5.875-11
 N3              9.987-16
 N3H             1.360-14
 *O              5.3003-9
 *OH             8.9442-6
 *O2             1.3305-9

  * THERMODYNAMIC PROPERTIES FITTED TO 20000.K









         THERMODYNAMIC EQUILIBRIUM COMBUSTION PROPERTIES AT ASSIGNED

                                     VOLUME

 CASE =                

             REACTANT                       MOLES         ENERGY      TEMP
                                                         KJ/KG-MOL      K
 FUEL        C2H6                         1.0000000    -86248.563    300.000
 OXIDANT     O2                           3.5000000     -2439.995    300.000
 OXIDANT     N2                          13.1667000     -2440.472    300.000

 O/F=    7.26872  %FUEL= 12.093764  R,EQ.RATIO= 2.200000  PHI,EQ.RATIO= 2.200000

 THERMODYNAMIC PROPERTIES

 P, BAR            7.9795
 T, K             1868.81
 RHO, KG/CU M    1.1623 0
 H, KJ/KG          265.27
 U, KJ/KG         -421.25
 G, KJ/KG        -19059.9
 S, KJ/(KG)(K)    10.3409

 M, (1/n)          22.633
 (dLV/dLP)t      -1.00004
 (dLV/dLT)p        1.0008
 Cp, KJ/(KG)(K)    1.6675
 GAMMAs            1.2830
 SON VEL,M/SEC      938.5

 MOLE FRACTIONS

 *C              1.032-16
 *CH             1.138-15
 CH2             6.994-13
 CH3             9.913-10
 CH2OH           2.932-12
 CH3O            2.400-13
 CH4             9.5541-8
 CH3OH           2.989-11
 *CN             1.460-11
 *CO             1.6295-1
 *CO2            1.9110-2
 COOH            4.8368-9
 C2H             1.046-16
 C2H2,acetylene  1.743-11
 C2H2,vinylidene 7.547-16
 CH2CO,ketene    5.998-11
 O(CH)2O         6.447-15
 C2H3,vinyl      1.196-15
 CH3CN           2.581-13
 CH3CO,acetyl    1.135-14
 C2H4            3.852-13
 CH3CHO,ethanal  2.087-14
 CH3COOH         1.791-15
 C2H6            5.261-16
 OCCN            2.561-14
 C2N2            8.246-14
 C2O             3.278-14
 C3O2            2.417-14
 *H              9.5157-5
 HCN             1.7017-6
 HCO             5.9938-8
 HCCO            7.302-14
 HNC             6.5990-8
 HNCO            2.3495-7
 HNO             6.483-11
 HNO2            1.122-13
 HO2             5.944-13
 *H2             1.8455-1
 HCHO,formaldehy 1.0047-7
 HCOOH           4.7478-8
 H2O             8.8470-2
 H2O2            4.981-12
 *N              3.108-11
 NCO             4.940-11
 *NH             3.684-10
 NH2             2.0630-8
 NH3             1.1961-5
 NH2OH           8.340-13
 *NO             1.5993-7
 NO2             3.676-14
 *N2             5.4480-1
 NCN             1.598-16
 N2H2            9.682-13
 N2H4            2.125-15
 N2O             2.146-11
 N3              3.385-16
 N3H             6.703-15
 *O              1.3651-9
 *OH             3.9994-6
 *O2             2.867-10

  * THERMODYNAMIC PROPERTIES FITTED TO 20000.K









         THERMODYNAMIC EQUILIBRIUM COMBUSTION PROPERTIES AT ASSIGNED

                                     VOLUME

 CASE =                

             REACTANT                       MOLES         ENERGY      TEMP
                                                         KJ/KG-MOL      K
 FUEL        C2H6                         1.0000000    -86248.563    300.000
 OXIDANT     O2                           3.5000000     -2439.995    300.000
 OXIDANT     N2                          13.1667000     -2440.472    300.000

 O/F=    6.95269  %FUEL= 12.574357  R,EQ.RATIO= 2.300000  PHI,EQ.RATIO= 2.300000

 THERMODYNAMIC PROPERTIES

 P, BAR            7.7988
 T, K             1799.35
 RHO, KG/CU M    1.1623 0
 H, KJ/KG          236.35
 U, KJ/KG         -434.63
 G, KJ/KG        -18463.8
 S, KJ/(KG)(K)    10.3927

 M, (1/n)          22.297
 (dLV/dLP)t      -1.00003
 (dLV/dLT)p        1.0005
 Cp, KJ/(KG)(K)    1.6728
 GAMMAs            1.2872
 SON VEL,M/SEC      929.3

 MOLE FRACTIONS

 *CH             4.662-16
 CH2             4.987-13
 CH3             1.3445-9
 CH2OH           2.668-12
 CH3O            1.978-13
 CH4             2.3210-7
 CH3OH           4.474-11
 *CN             8.453-12
 *CO             1.6885-1
 *CO2            1.7627-2
 COOH            2.9506-9
 C2H2,acetylene  3.142-11
 C2H2,vinylidene 8.701-16
 CH2CO,ketene    9.656-11
 O(CH)2O         6.814-15
 C2H3,vinyl      1.899-15
 CH3CN           7.087-13
 CH3CO,acetyl    1.705-14
 C2H4            1.168-12
 CH3CHO,ethanal  4.839-14
 CH3COOH         3.490-15
 C2H5            1.167-16
 C2H6            2.399-15
 OCCN            1.968-14
 C2N2            1.071-13
 C2O             2.107-14
 C3O2            3.032-14
 *H              5.7112-5
 HCN             2.1586-6
 HCO             4.3923-8
 HCCO            6.457-14
 HNC             7.1689-8
 HNCO            2.4839-7
 HNO             2.318-11
 HNO2            2.770-14
 HO2             1.217-13
 *H2             2.0000-1
 HCHO,formaldehy 1.1120-7
 HCOOH           4.4450-8
 H2O             7.9670-2
 H2O2            1.521-12
 *N              9.454-12
 NCO             2.692-11
 *NH             1.563-10
 NH2             1.3853-8
 NH3             1.4999-5
 NH2OH           4.603-13
 *NO             5.6808-8
 NO2             6.686-15
 *N2             5.3377-1
 N2H2            5.948-13
 N2H4            1.872-15
 N2O             7.527-12
 N3              1.083-16
 N3H             3.162-15
 *O              3.302-10
 *OH             1.7184-6
 *O2             5.817-11

  * THERMODYNAMIC PROPERTIES FITTED TO 20000.K









         THERMODYNAMIC EQUILIBRIUM COMBUSTION PROPERTIES AT ASSIGNED

                                     VOLUME

 CASE =                

             REACTANT                       MOLES         ENERGY      TEMP
                                                         KJ/KG-MOL      K
 FUEL        C2H6                         1.0000000    -86248.563    300.000
 OXIDANT     O2                           3.5000000     -2439.995    300.000
 OXIDANT     N2                          13.1667000     -2440.472    300.000

 O/F=    6.66300  %FUEL= 13.049724  R,EQ.RATIO= 2.400000  PHI,EQ.RATIO= 2.400000

 THERMODYNAMIC PROPERTIES

 P, BAR            7.6139
 T, K             1731.25
 RHO, KG/CU M    1.1623 0
 H, KJ/KG          207.21
 U, KJ/KG         -447.86
 G, KJ/KG        -17868.8
 S, KJ/(KG)(K)    10.4410

 M, (1/n)          21.974
 (dLV/dLP)t      -1.00003
 (dLV/dLT)p        1.0004
 Cp, KJ/(KG)(K)    1.6785
 GAMMAs            1.2913
 SON VEL,M/SEC      919.7

 MOLE FRACTIONS

 *CH             1.774-16
 CH2             3.388-13
 CH3             1.7927-9
 CH2OH           2.357-12
 CH3O            1.576-13
 CH4             5.7079-7
 CH3OH           6.658-11
 *CN             4.671-12
 *CO             1.7443-1
 *CO2            1.6292-2
 COOH            1.7495-9
 C2H2,acetylene  5.614-11
 C2H2,vinylidene 9.683-16
 CH2CO,ketene    1.548-10
 O(CH)2O         7.080-15
 C2H3,vinyl      2.949-15
 CH3CN           1.968-12
 CH3CO,acetyl    2.528-14
 C2H4            3.575-12
 CH3CHO,ethanal  1.128-13
 CH3COOH         6.852-15
 C2H5            3.097-16
 C2H6            1.117-14
 OCCN            1.462-14
 C2N2            1.375-13
 C2O             1.294-14
 C3O2            3.768-14
 *H              3.3076-5
 HCN             2.7196-6
 HCO             3.1254-8
 HCCO            5.524-14
 HNC             7.6646-8
 HNCO            2.6091-7
 HNO             7.856-12
 HNO2            6.411-15
 HO2             2.309-14
 *H2             2.1492-1
 HCHO,formaldehy 1.2170-7
 HCOOH           4.1261-8
 H2O             7.1128-2
 H2O2            4.375-13
 *N              2.686-12
 NCO             1.412-11
 *NH             6.276-11
 NH2             8.9799-9
 NH3             1.8712-5
 NH2OH           2.440-13
 *NO             1.9221-8
 NO2             1.127-15
 *N2             5.2317-1
 N2H2            3.520-13
 N2H4            1.600-15
 N2O             2.518-12
 N3H             1.424-15
 *O              7.434-11
 *OH             7.0576-7
 *O2             1.099-11

  * THERMODYNAMIC PROPERTIES FITTED TO 20000.K









         THERMODYNAMIC EQUILIBRIUM COMBUSTION PROPERTIES AT ASSIGNED

                                     VOLUME

 CASE =                

             REACTANT                       MOLES         ENERGY      TEMP
                                                         KJ/KG-MOL      K
 FUEL        C2H6                         1.0000000    -86248.563    300.000
 OXIDANT     O2                           3.5000000     -2439.995    300.000
 OXIDANT     N2                          13.1667000     -2440.472    300.000

 O/F=    6.39648  %FUEL= 13.519949  R,EQ.RATIO= 2.500000  PHI,EQ.RATIO= 2.500000

 THERMODYNAMIC PROPERTIES

 P, BAR            7.4251
 T, K             1664.46
 RHO, KG/CU M    1.1623 0
 H, KJ/KG          177.88
 U, KJ/KG         -460.95
 G, KJ/KG        -17275.5
 S, KJ/(KG)(K)    10.4859

 M, (1/n)          21.663
 (dLV/dLP)t      -1.00004
 (dLV/dLT)p        1.0003
 Cp, KJ/(KG)(K)    1.6843
 GAMMAs            1.2953
 SON VEL,M/SEC      909.7

 MOLE FRACTIONS

 CH2             2.196-13
 CH3             2.3624-9
 CH2OH           2.024-12
 CH3O            1.215-13
 CH4             1.4337-6
 CH3OH           9.894-11
 *CN             2.461-12
 *CO             1.7974-1
 *CO2            1.5063-2
 COOH            1.0047-9
 C2H2,acetylene  1.003-10
 C2H2,vinylidene 1.046-15
 CH2CO,ketene    2.487-10
 O(CH)2O         7.250-15
 C2H3,vinyl      4.514-15
 CH3CN           5.589-12
 CH3CO,acetyl    3.719-14
 C2H4            1.118-11
 CH3CHO,ethanal  2.667-13
 CH3COOH         1.364-14
 C2H5            8.282-16
 C2H6            5.399-14
 OCCN            1.051-14
 C2N2            1.753-13
 C2O             7.595-15
 C3O2            4.658-14
 *H              1.8440-5
 HCN             3.4167-6
 HCO             2.1574-8
 HCCO            4.583-14
 HNC             8.0896-8
 HNCO            2.7265-7
 HNO             2.506-12
 HNO2            1.377-15
 HO2             4.006-15
 *H2             2.2930-1
 HCHO,formaldehy 1.3195-7
 HCOOH           3.7956-8
 H2O             6.2865-2
 H2O2            1.174-13
 *N              7.084-13
 NCO             7.103-12
 *NH             2.373-11
 NH2             5.6121-9
 NH3             2.3286-5
 NH2OH           1.238-13
 *NO             6.1489-9
 NO2             1.737-16
 *N2             5.1298-1
 N2H2            2.004-13
 N2H4            1.329-15
 N2O             7.976-13
 N3H             6.100-16
 *O              1.543-11
 *OH             2.7540-7
 *O2             1.911-12

  * THERMODYNAMIC PROPERTIES FITTED TO 20000.K









         THERMODYNAMIC EQUILIBRIUM COMBUSTION PROPERTIES AT ASSIGNED

                                     VOLUME

 CASE =                

             REACTANT                       MOLES         ENERGY      TEMP
                                                         KJ/KG-MOL      K
 FUEL        C2H6                         1.0000000    -86248.563    300.000
 OXIDANT     O2                           3.5000000     -2439.995    300.000
 OXIDANT     N2                          13.1667000     -2440.472    300.000

 O/F=    6.15046  %FUEL= 13.985116  R,EQ.RATIO= 2.600000  PHI,EQ.RATIO= 2.600000

 THERMODYNAMIC PROPERTIES

 P, BAR            7.2325
 T, K             1598.91
 RHO, KG/CU M    1.1623 0
 H, KJ/KG          148.35
 U, KJ/KG         -473.90
 G, KJ/KG        -16683.8
 S, KJ/(KG)(K)    10.5273

 M, (1/n)          21.365
 (dLV/dLP)t      -1.00005
 (dLV/dLT)p        1.0003
 Cp, KJ/(KG)(K)    1.6901
 GAMMAs            1.2993
 SON VEL,M/SEC      899.2

 MOLE FRACTIONS

 CH2             1.358-13
 CH3             3.0912-9
 CH2OH           1.692-12
 CH3O            9.070-14
 CH4             3.7109-6
 CH3OH           1.474-10
 *CN             1.234-12
 *CO             1.8482-1
 *CO2            1.3906-2
 COOH            5.565-10
 C2H2,acetylene  1.807-10
 C2H2,vinylidene 1.103-15
 CH2CO,ketene    4.027-10
 O(CH)2O         7.329-15
 C2H3,vinyl      6.864-15
 CH3CN           1.643-11
 CH3CO,acetyl    5.464-14
 C2H4            3.620-11
 CH3CHO,ethanal  6.454-13
 CH3COOH         2.772-14
 C2H5            2.259-15
 C2H6            2.749-13
 OCCN            7.319-15
 C2N2            2.235-13
 C2O             4.260-15
 C3H4,propyne    2.416-16
 C3O2            5.754-14
 *H              9.8670-6
 HCN             4.2970-6
 HCO             1.4427-8
 HCCO            3.694-14
 HNC             8.4537-8
 HNCO            2.8376-7
 HNO             7.465-13
 HNO2            2.711-16
 HO2             6.275-16
 *H2             2.4315-1
 HCHO,formaldehy 1.4194-7
 HCOOH           3.4565-8
 H2O             5.4894-2
 H2O2            2.911-14
 *N              1.721-13
 NCO             3.418-12
 *NH             8.406-12
 NH2             3.3747-9
 NH3             2.8974-5
 NH2OH           5.984-14
 *NO             1.8444-9
 *N2             5.0319-1
 N2H2            1.095-13
 N2H4            1.074-15
 N2O             2.372-13
 N3H             2.476-16
 *O              2.922-12
 *OH             1.0139-7
 *O2             3.014-13

  * THERMODYNAMIC PROPERTIES FITTED TO 20000.K









         THERMODYNAMIC EQUILIBRIUM COMBUSTION PROPERTIES AT ASSIGNED

                                     VOLUME

 CASE =                

             REACTANT                       MOLES         ENERGY      TEMP
                                                         KJ/KG-MOL      K
 FUEL        C2H6                         1.0000000    -86248.563    300.000
 OXIDANT     O2                           3.5000000     -2439.995    300.000
 OXIDANT     N2                          13.1667000     -2440.472    300.000

 O/F=    5.92266  %FUEL= 14.445306  R,EQ.RATIO= 2.700000  PHI,EQ.RATIO= 2.700000

 THERMODYNAMIC PROPERTIES

 P, BAR            7.0360
 T, K             1534.55
 RHO, KG/CU M    1.1623 0
 H, KJ/KG          118.64
 U, KJ/KG         -486.71
 G, KJ/KG        -16094.1
 S, KJ/(KG)(K)    10.5652

 M, (1/n)          21.077
 (dLV/dLP)t      -1.00008
 (dLV/dLT)p        1.0006
 Cp, KJ/(KG)(K)    1.6961
 GAMMAs            1.3034
 SON VEL,M/SEC      888.3

 MOLE FRACTIONS

 CH2             8.013-14
 CH3             4.0357-9
 CH2OH           1.375-12
 CH3O            6.545-14
 CH4             9.9899-6
 CH3OH           2.210-10
 *CN             5.884-13
 *CO             1.8971-1
 *CO2            1.2787-2
 COOH            2.957-10
 C2H2,acetylene  3.313-10
 C2H2,vinylidene 1.142-15
 CH2CO,ketene    6.615-10
 O(CH)2O         7.323-15
 C2H3,vinyl      1.045-14
 CH3CN           5.060-11
 CH3CO,acetyl    8.065-14
 C2H4            1.228-10
 CH3CHO,ethanal  1.614-12
 CH3COOH         5.787-14
 C2H5            6.360-15
 C2H6            1.499-12
 C2H5OH          2.858-16
 OCCN            4.941-15
 C2N2            2.867-13
 C2O             2.281-15
 C3H3,2-propynl  1.106-16
 C3H4,allene     3.576-16
 C3H4,propyne    1.003-15
 C3H6,propylene  2.414-16
 C3O2            7.135-14
 *H              5.0497-6
 HCN             5.4329-6
 HCO             9.3263-9
 HCCO            2.898-14
 HNC             8.7736-8
 HNCO            2.9438-7
 HNO             2.057-13
 *H2             2.5646-1
 HCHO,formaldehy 1.5167-7
 HCOOH           3.1107-8
 H2O             4.7232-2
 H2O2            6.582-15
 *N              3.817-14
 NCO             1.566-12
 *NH             2.773-12
 NH2             1.9475-9
 NH3             3.6119-5
 NH2OH           2.741-14
 *NO             5.138-10
 *N2             4.9376-1
 N2H2            5.721-14
 N2H4            8.437-16
 N2O             6.566-14
 *O              4.985-13
 *OH             3.4937-8
 *O2             4.247-14

  * THERMODYNAMIC PROPERTIES FITTED TO 20000.K









         THERMODYNAMIC EQUILIBRIUM COMBUSTION PROPERTIES AT ASSIGNED

                                     VOLUME

 CASE =                

             REACTANT                       MOLES         ENERGY      TEMP
                                                         KJ/KG-MOL      K
 FUEL        C2H6                         1.0000000    -86248.563    300.000
 OXIDANT     O2                           3.5000000     -2439.995    300.000
 OXIDANT     N2                          13.1667000     -2440.472    300.000

 O/F=    5.71114  %FUEL= 14.900597  R,EQ.RATIO= 2.800000  PHI,EQ.RATIO= 2.800000

 THERMODYNAMIC PROPERTIES

 P, BAR            6.8358
 T, K             1471.36
 RHO, KG/CU M    1.1623 0
 H, KJ/KG          88.742
 U, KJ/KG         -499.38
 G, KJ/KG        -15506.9
 S, KJ/(KG)(K)    10.5995

 M, (1/n)          20.801
 (dLV/dLP)t      -1.00017
 (dLV/dLT)p        1.0013
 Cp, KJ/(KG)(K)    1.7034
 GAMMAs            1.3074
 SON VEL,M/SEC      876.9

 MOLE FRACTIONS

 CH2             4.513-14
 CH3             5.2841-9
 CH2OH           1.087-12
 CH3O            4.563-14
 CH4             2.8242-5
 CH3OH           3.346-10
 *CN             2.662-13
 *CO             1.9445-1
 *CO2            1.1675-2
 COOH            1.498-10
 C2H2,acetylene  6.245-10
 C2H2,vinylidene 1.168-15
 CH2CO,ketene    1.1097-9
 O(CH)2O         7.242-15
 C2H3,vinyl      1.610-14
 CH3CN           1.655-10
 CH3CO,acetyl    1.203-13
 C2H4            4.432-10
 CH3CHO,ethanal  4.208-12
 CH3COOH         1.248-13
 C2H5            1.874-14
 C2H6            8.915-12
 C2H5OH          9.706-16
 OCCN            3.237-15
 C2N2            3.732-13
 C2O             1.166-15
 C3H3,2-propynl  2.926-16
 C3H4,allene     1.561-15
 C3H4,propyne    4.481-15
 C3H6,propylene  1.964-15
 C3O2            8.926-14
 *H              2.4624-6
 HCN             6.9382-6
 HCO             5.8158-9
 HCCO            2.218-14
 HNC             9.0758-8
 HNCO            3.0464-7
 HNO             5.190-14
 *H2             2.6921-1
 HCHO,formaldehy 1.6113-7
 HCOOH           2.7591-8
 H2O             3.9899-2
 H2O2            1.338-15
 *N              7.665-15
 NCO             6.806-13
 *NH             8.467-13
 NH2             1.0754-9
 NH3             4.5191-5
 NH2OH           1.181-14
 *NO             1.316-10
 *N2             4.8469-1
 N2H2            2.851-14
 N2H4            6.441-16
 N2O             1.673-14
 *O              7.559-14
 *OH             1.1164-8
 *O2             5.252-15

  * THERMODYNAMIC PROPERTIES FITTED TO 20000.K









         THERMODYNAMIC EQUILIBRIUM COMBUSTION PROPERTIES AT ASSIGNED

                                     VOLUME

 CASE =                

             REACTANT                       MOLES         ENERGY      TEMP
                                                         KJ/KG-MOL      K
 FUEL        C2H6                         1.0000000    -86248.563    300.000
 OXIDANT     O2                           3.5000000     -2439.995    300.000
 OXIDANT     N2                          13.1667000     -2440.472    300.000

 O/F=    5.51420  %FUEL= 15.351068  R,EQ.RATIO= 2.900000  PHI,EQ.RATIO= 2.900000

 THERMODYNAMIC PROPERTIES

 P, BAR            6.6326
 T, K             1409.45
 RHO, KG/CU M    1.1623 0
 H, KJ/KG          58.717
 U, KJ/KG         -511.92
 G, KJ/KG        -14924.0
 S, KJ/(KG)(K)    10.6302

 M, (1/n)          20.536
 (dLV/dLP)t      -1.00040
 (dLV/dLT)p        1.0037
 Cp, KJ/(KG)(K)    1.7166
 GAMMAs            1.3109
 SON VEL,M/SEC      864.9

 MOLE FRACTIONS

 CH2             2.432-14
 CH3             6.9770-9
 CH2OH           8.345-13
 CH3O            3.071-14
 CH4             8.4565-5
 CH3OH           5.125-10
 *CN             1.145-13
 *CO             1.9905-1
 *CO2            1.0541-2
 COOH            7.191-11
 C2H2,acetylene  1.2237-9
 C2H2,vinylidene 1.192-15
 CH2CO,ketene    1.9140-9
 O(CH)2O         7.092-15
 C2H3,vinyl      2.533-14
 CH3CN           5.831-10
 CH3CO,acetyl    1.827-13
 C2H4            1.7243-9
 CH3CHO,ethanal  1.154-11
 CH3COOH         2.793-13
 C2H5            5.852-14
 C2H6            5.871-11
 C2H5OH          3.507-15
 OCCN            2.064-15
 C2N2            4.979-13
 C2O             5.699-16
 C3H3,2-propynl  8.223-16
 C3H4,allene     7.458-15
 C3H4,propyne    2.194-14
 C3H5,allyl      1.793-16
 C3H6,propylene  1.812-14
 C3H8            1.218-16
 C3O2            1.133-13
 *H              1.1412-6
 HCN             8.9985-6
 HCO             3.4930-9
 HCCO            1.662-14
 HNC             9.4006-8
 HNCO            3.1465-7
 HNO             1.188-14
 *H2             2.8133-1
 HCHO,formaldehy 1.7031-7
 HCOOH           2.4026-8
 H2O             3.2937-2
 H2O2            2.411-16
 *N              1.385-15
 NCO             2.797-13
 *NH             2.382-13
 NH2             5.670-10
 NH3             5.6813-5
 NH2OH           4.757-15
 *NO             3.068-11
 *N2             4.7598-1
 N2H2            1.352-14
 N2H4            4.776-16
 N2O             3.893-15
 *O              1.008-14
 *OH             3.2806-9
 *O2             5.610-16

  * THERMODYNAMIC PROPERTIES FITTED TO 20000.K









         THERMODYNAMIC EQUILIBRIUM COMBUSTION PROPERTIES AT ASSIGNED

                                     VOLUME

 CASE =                

             REACTANT                       MOLES         ENERGY      TEMP
                                                         KJ/KG-MOL      K
 FUEL        C2H6                         1.0000000    -86248.563    300.000
 OXIDANT     O2                           3.5000000     -2439.995    300.000
 OXIDANT     N2                          13.1667000     -2440.472    300.000

 O/F=    5.33040  %FUEL= 15.796796  R,EQ.RATIO= 3.000000  PHI,EQ.RATIO= 3.000000

 THERMODYNAMIC PROPERTIES

 P, BAR            6.4286
 T, K             1349.48
 RHO, KG/CU M    1.1623 0
 H, KJ/KG          28.759
 U, KJ/KG         -524.33
 G, KJ/KG        -14352.8
 S, KJ/(KG)(K)    10.6571

 M, (1/n)          20.286
 (dLV/dLP)t      -1.00114
 (dLV/dLT)p        1.0114
 Cp, KJ/(KG)(K)    1.7533
 GAMMAs            1.3123
 SON VEL,M/SEC      852.0

 MOLE FRACTIONS

 CH2             1.266-14
 CH3             9.3307-9
 CH2OH           6.240-13
 CH3O            2.001-14
 CH4             2.6805-4
 CH3OH           7.923-10
 *CN             4.731-14
 *CO             2.0351-1
 *CO2            9.3630-3
 COOH            3.267-11
 C2H2,acetylene  2.5132-9
 C2H2,vinylidene 1.227-15
 CH2CO,ketene    3.4045-9
 O(CH)2O         6.884-15
 C2H3,vinyl      4.110-14
 CH3CN           2.2219-9
 CH3CO,acetyl    2.834-13
 C2H4            7.2629-9
 CH3CHO,ethanal  3.332-11
 CH3COOH         6.459-13
 C2H5            1.948-13
 C2H6            4.287-10
 C2H5OH          1.347-14
 OCCN            1.293-15
 C2N2            6.879-13
 C2O             2.692-16
 C3H3,2-propynl  2.484-15
 C3H4,allene     3.937-14
 C3H4,propyne    1.189-13
 C3H5,allyl      1.055-15
 C3H6,propylene  1.905-13
 C3H6,cyclo-     2.459-16
 C3H6O,acetone   5.911-16
 C3H6O,propanal  1.321-16
 C3H8            2.110-15
 C3O2            1.467-13
 *H              5.0503-7
 HCN             1.1906-5
 HCO             2.0270-9
 HCCO            1.228-14
 HNC             9.8074-8
 HNCO            3.2439-7
 HNO             2.474-15
 *H2             2.9263-1
 HCHO,formaldehy 1.7905-7
 HCOOH           2.0448-8
 H2O             2.6442-2
 *N              2.275-16
 NCO             1.093-13
 *NH             6.220-14
 NH2             2.866-10
 NH3             7.1670-5
 NH2OH           1.790-15
 *NO             6.535-12
 *N2             4.6770-1
 N2H2            6.130-15
 N2H4            3.448-16
 N2O             8.290-16
 *O              1.188-15
 *OH             8.879-10

  * THERMODYNAMIC PROPERTIES FITTED TO 20000.K









         THERMODYNAMIC EQUILIBRIUM COMBUSTION PROPERTIES AT ASSIGNED

                                     VOLUME

 CASE =                

             REACTANT                       MOLES         ENERGY      TEMP
                                                         KJ/KG-MOL      K
 FUEL        C2H6                         1.0000000    -86248.563    300.000
 OXIDANT     O2                           3.5000000     -2439.995    300.000
 OXIDANT     N2                          13.1667000     -2440.472    300.000

 O/F=    5.15845  %FUEL= 16.237853  R,EQ.RATIO= 3.100000  PHI,EQ.RATIO= 3.100000

 THERMODYNAMIC PROPERTIES

 P, BAR            6.2320
 T, K             1293.73
 RHO, KG/CU M    1.1623 0
 H, KJ/KG        -0.43034
 U, KJ/KG         -536.61
 G, KJ/KG        -13817.9
 S, KJ/(KG)(K)    10.6803

 M, (1/n)          20.062
 (dLV/dLP)t      -1.00338
 (dLV/dLT)p        1.0363
 Cp, KJ/(KG)(K)    1.8713
 GAMMAs            1.3063
 SON VEL,M/SEC      836.9

 MOLE FRACTIONS

 CH2             6.583-15
 CH3             1.2582-8
 CH2OH           4.596-13
 CH3O            1.284-14
 CH4             8.6422-4
 CH3OH           1.2145-9
 *CN             1.963-14
 *CO             2.0763-1
 *CO2            8.1629-3
 COOH            1.440-11
 C2H2,acetylene  5.3321-9
 C2H2,vinylidene 1.293-15
 CH2CO,ketene    6.1459-9
 O(CH)2O         6.632-15
 C2H3,vinyl      6.844-14
 CH3CN           8.7999-9
 CH3CO,acetyl    4.443-13
 C2H4            3.1694-8
 C2H4O,ethylen-o 1.708-16
 CH3CHO,ethanal  9.768-11
 CH3COOH         1.491-12
 C2H5            6.678-13
 C2H6            3.2471-9
 C2H5OH          5.239-14
 OCCN            8.174-16
 C2N2            9.859-13
 C2O             1.277-16
 C3H3,2-propynl  7.887-15
 C3H4,allene     2.194-13
 C3H4,propyne    6.796-13
 C3H5,allyl      6.552-15
 C3H6,propylene  2.120-12
 C3H6,cyclo-     2.401-15
 C3H6O,acetone   4.768-15
 C3H6O,propanal  9.257-16
 C3H8            3.874-14
 C3O2            1.933-13
 C4H6,butadiene  4.576-16
 *H              2.2066-7
 HCN             1.6005-5
 HCO             1.1623-9
 HCCO            9.142-15
 HNC             1.0364-7
 HNCO            3.3341-7
 HNO             4.962-16
 *H2             3.0247-1
 HCHO,formaldehy 1.8687-7
 HCOOH           1.6995-8
 H2O             2.0676-2
 NCO             4.223-14
 *NH             1.593-14
 NH2             1.428-10
 NH3             8.9843-5
 NH2OH           6.501-16
 *NO             1.344-12
 *N2             4.6009-1
 N2H2            2.743-15
 N2H4            2.455-16
 N2O             1.709-16
 *O              1.343-16
 *OH             2.317-10

  * THERMODYNAMIC PROPERTIES FITTED TO 20000.K









         THERMODYNAMIC EQUILIBRIUM COMBUSTION PROPERTIES AT ASSIGNED

                                     VOLUME

 CASE =                

             REACTANT                       MOLES         ENERGY      TEMP
                                                         KJ/KG-MOL      K
 FUEL        C2H6                         1.0000000    -86248.563    300.000
 OXIDANT     O2                           3.5000000     -2439.995    300.000
 OXIDANT     N2                          13.1667000     -2440.472    300.000

 O/F=    4.99725  %FUEL= 16.674315  R,EQ.RATIO= 3.200000  PHI,EQ.RATIO= 3.200000

 THERMODYNAMIC PROPERTIES

 P, BAR            6.0623
 T, K             1247.46
 RHO, KG/CU M    1.1623 0
 H, KJ/KG         -27.186
 U, KJ/KG         -548.76
 G, KJ/KG        -13375.0
 S, KJ/(KG)(K)    10.6999

 M, (1/n)          19.886
 (dLV/dLP)t      -1.00858
 (dLV/dLT)p        1.0969
 Cp, KJ/(KG)(K)    2.1709
 GAMMAs            1.2873
 SON VEL,M/SEC      819.4

 MOLE FRACTIONS

 CH2             3.706-15
 CH3             1.6607-8
 CH2OH           3.454-13
 CH3O            8.538-15
 CH4             2.4894-3
 CH3OH           1.7573-9
 *CN             9.076-15
 *CO             2.1098-1
 *CO2            7.0626-3
 COOH            6.732-12
 C2H2,acetylene  1.0820-8
 C2H2,vinylidene 1.397-15
 CH2CO,ketene    1.0570-8
 O(CH)2O         6.366-15
 C2H3,vinyl      1.113-13
 CH3CN           3.1206-8
 CH3CO,acetyl    6.714-13
 C2H4            1.2213-7
 C2H4O,ethylen-o 3.046-16
 CH3CHO,ethanal  2.580-10
 CH3COOH         3.122-12
 C2H5            2.065-12
 C2H6            2.0409-8
 C2H5OH          1.774-13
 CH3OCH3         2.306-16
 OCCN            5.515-16
 C2N2            1.418-12
 C3H3,2-propynl  2.336-14
 C3H4,allene     1.074-12
 C3H4,propyne    3.404-12
 C3H4,cyclo-     2.120-16
 C3H5,allyl      3.526-14
 C3H6,propylene  1.920-11
 C3H6,cyclo-     1.935-14
 C3H6O,acetone   3.169-14
 C3H6O,propanal  5.424-15
 C3H8            5.467-13
 C3O2            2.520-13
 C4H2,butadiyne  1.393-16
 C4H6,butadiene  6.105-15
 C4H6,2butyne    1.798-16
 C4H8,1-butene   4.820-16
 C4H8,cis2-buten 2.845-16
 C4H8,tr2-butene 3.220-16
 C4H8,isobutene  4.294-16
 C6H6            3.660-16
 *H              1.0464-7
 HCN             2.1221-5
 HCO             7.018-10
 HCCO            7.117-15
 HNC             1.1071-7
 HNCO            3.4036-7
 HNO             1.146-16
 *H2             3.0955-1
 HCHO,formaldehy 1.9264-7
 HCOOH           1.4018-8
 H2O             1.6125-2
 NCO             1.797-14
 *NH             4.674-15
 NH2             7.588-11
 NH3             1.0902-4
 NH2OH           2.544-16
 *NO             3.185-13
 *N2             4.5367-1
 N2H2            1.326-15
 N2H4            1.789-16
 *OH             6.771-11

  * THERMODYNAMIC PROPERTIES FITTED TO 20000.K









         THERMODYNAMIC EQUILIBRIUM COMBUSTION PROPERTIES AT ASSIGNED

                                     VOLUME

 CASE =                

             REACTANT                       MOLES         ENERGY      TEMP
                                                         KJ/KG-MOL      K
 FUEL        C2H6                         1.0000000    -86248.563    300.000
 OXIDANT     O2                           3.5000000     -2439.995    300.000
 OXIDANT     N2                          13.1667000     -2440.472    300.000

 O/F=    4.84582  %FUEL= 17.106251  R,EQ.RATIO= 3.300000  PHI,EQ.RATIO= 3.300000

 THERMODYNAMIC PROPERTIES

 P, BAR            5.9356
 T, K             1214.51
 RHO, KG/CU M    1.1623 0
 H, KJ/KG         -50.108
 U, KJ/KG         -560.78
 G, KJ/KG        -13065.6
 S, KJ/(KG)(K)    10.7166

 M, (1/n)          19.774
 (dLV/dLP)t      -1.01559
 (dLV/dLT)p        1.1820
 Cp, KJ/(KG)(K)    2.6122
 GAMMAs            1.2647
 SON VEL,M/SEC      803.7

 MOLE FRACTIONS

 CH2             2.420-15
 CH3             2.0636-8
 CH2OH           2.751-13
 CH3O            6.200-15
 CH4             5.5762-3
 CH3OH           2.2931-9
 *CN             5.138-15
 *CO             2.1317-1
 *CO2            6.2082-3
 COOH            3.698-12
 C2H2,acetylene  1.9004-8
 C2H2,vinylidene 1.522-15
 CH2CO,ketene    1.6087-8
 O(CH)2O         6.118-15
 C2H3,vinyl      1.648-13
 CH3CN           8.3450-8
 CH3CO,acetyl    9.239-13
 C2H4            3.4671-7
 C2H4O,ethylen-o 4.736-16
 CH3CHO,ethanal  5.406-10
 CH3COOH         5.389-12
 C2H5            4.947-12
 C2H6            8.3461-8
 C2H5OH          4.461-13
 CH3OCH3         5.098-16
 OCCN            4.153-16
 C2N2            1.931-12
 C3H3,2-propynl  5.540-14
 C3H4,allene     3.716-12
 C3H4,propyne    1.199-11
 C3H4,cyclo-     5.874-16
 C3H5,allyl      1.307-13
 C3H6,propylene  1.053-10
 C3H6,cyclo-     9.713-14
 C3H6O,acetone   1.350-13
 C3H6O,propanal  2.101-14
 C3H7,n-propyl   2.234-16
 C3H7,i-propyl   2.900-16
 C3H8            4.174-12
 C3O2            3.124-13
 C4H2,butadiyne  4.233-16
 C4H6,butadiene  4.570-14
 C4H6,1butyne    6.364-16
 C4H6,2butyne    1.255-15
 C4H8,1-butene   4.939-15
 C4H8,cis2-buten 2.997-15
 C4H8,tr2-butene 3.396-15
 C4H8,isobutene  4.596-15
 C4H10,n-butane  2.076-16
 C5H6,1,3cyclo-  3.737-16
 C6H6            9.370-15
 *H              5.9273-8
 HCN             2.6632-5
 HCO             4.763-10
 HCCO            5.955-15
 HNC             1.1793-7
 HNCO            3.4413-7
 *H2             3.1309-1
 HCHO,formaldehy 1.9560-7
 HCOOH           1.1818-8
 H2O             1.3031-2
 NCO             9.385-15
 *NH             1.838-15
 NH2             4.668-11
 NH3             1.2502-4
 NH2OH           1.216-16
 *NO             1.049-13
 *N2             4.4876-1
 N2H2            7.595-16
 N2H4            1.390-16
 *OH             2.608-11

  * THERMODYNAMIC PROPERTIES FITTED TO 20000.K









         THERMODYNAMIC EQUILIBRIUM COMBUSTION PROPERTIES AT ASSIGNED

                                     VOLUME

 CASE =                

             REACTANT                       MOLES         ENERGY      TEMP
                                                         KJ/KG-MOL      K
 FUEL        C2H6                         1.0000000    -86248.563    300.000
 OXIDANT     O2                           3.5000000     -2439.995    300.000
 OXIDANT     N2                          13.1667000     -2440.472    300.000

 O/F=    4.70329  %FUEL= 17.533733  R,EQ.RATIO= 3.400000  PHI,EQ.RATIO= 3.400000

 THERMODYNAMIC PROPERTIES

 P, BAR            5.8473
 T, K             1192.68
 RHO, KG/CU M    1.1623 0
 H, KJ/KG         -69.601
 U, KJ/KG         -572.68
 G, KJ/KG        -12868.5
 S, KJ/(KG)(K)    10.7312

 M, (1/n)          19.712
 MW, MOL WT        19.706
 (dLV/dLP)t      -1.02264
 (dLV/dLT)p        1.2866
 Cp, KJ/(KG)(K)    3.3332
 GAMMAs            1.2298
 SON VEL,M/SEC      786.6

 MOLE FRACTIONS

 CH2             1.799-15
 CH3             2.3905-8
 CH2OH           2.326-13
 CH3O            4.920-15
 CH4             9.6938-3
 CH3OH           2.7234-9
 *CN             3.476-15
 *CO             2.1421-1
 *CO2            5.6295-3
 COOH            2.414-12
 C2H2,acetylene  2.8173-8
 C2H2,vinylidene 1.619-15
 CH2CO,ketene    2.1457-8
 O(CH)2O         5.898-15
 C2H3,vinyl      2.164-13
 CH3CN           1.6504-7
 CH3CO,acetyl    1.146-12
 C2H4            7.1325-7
 C2H4O,ethylen-o 6.380-16
 CH3CHO,ethanal  8.951-10
 CH3COOH         7.759-12
 C2H5            9.024-12
 C2H6            2.2001-7
 C2H5OH          8.340-13
 CH3OCH3         8.720-16
 OCCN            3.417-16
 C2N2            2.409-12
 C3H3,2-propynl  1.013-13
 C3H4,allene     8.808-12
 C3H4,propyne    2.875-11
 C3H4,cyclo-     1.193-15
 C3H5,allyl      3.243-13
 C3H6,propylene  3.417-10
 C3H6,cyclo-     2.965-13
 C3H6O,acetone   3.656-13
 C3H6O,propanal  5.325-14
 C3H7,n-propyl   6.246-16
 C3H7,i-propyl   8.278-16
 C3H8            1.694-11
 C3O2            3.626-13
 C4H2,butadiyne  9.252-16
 C4H6,butadiene  1.848-13
 C4H6,1butyne    2.348-15
 C4H6,2butyne    4.830-15
 C4H8,1-butene   2.469-14
 C4H8,cis2-buten 1.527-14
 C4H8,tr2-butene 1.733-14
 C4H8,isobutene  2.368-14
 C4H10,n-butane  1.296-15
 C4H10,isobutane 5.822-16
 C5H6,1,3cyclo-  2.177-15
 C6H6            8.957-14
 *H              3.9888-8
 HCN             3.1208-5
 HCO             3.624-10
 HCCO            5.260-15
 HNC             1.2334-7
 HNCO            3.4495-7
 *H2             3.1401-1
 HCHO,formaldehy 1.9622-7
 HCOOH           1.0362-8
 H2O             1.1113-2
 NCO             5.968-15
 *NH             9.598-16
 NH2             3.314-11
 NH3             1.3635-4
 *NO             4.828-14
 *N2             4.4492-1
 N2H2            5.132-16
 N2H4            1.154-16
 *OH             1.334-11
 C(gr)           2.5576-4

  * THERMODYNAMIC PROPERTIES FITTED TO 20000.K









         THERMODYNAMIC EQUILIBRIUM COMBUSTION PROPERTIES AT ASSIGNED

                                     VOLUME

 CASE =                

             REACTANT                       MOLES         ENERGY      TEMP
                                                         KJ/KG-MOL      K
 FUEL        C2H6                         1.0000000    -86248.563    300.000
 OXIDANT     O2                           3.5000000     -2439.995    300.000
 OXIDANT     N2                          13.1667000     -2440.472    300.000

 O/F=    4.56891  %FUEL= 17.956828  R,EQ.RATIO= 3.500000  PHI,EQ.RATIO= 3.500000

 THERMODYNAMIC PROPERTIES

 P, BAR            5.8141
 T, K             1183.40
 RHO, KG/CU M    1.1623 0
 H, KJ/KG         -84.235
 U, KJ/KG         -584.46
 G, KJ/KG        -12799.6
 S, KJ/(KG)(K)    10.7448

 M, (1/n)          19.670
 MW, MOL WT        19.519
 (dLV/dLP)t      -1.02452
 (dLV/dLT)p        1.3127
 Cp, KJ/(KG)(K)    3.5111
 GAMMAs            1.2239
 SON VEL,M/SEC      782.4

 MOLE FRACTIONS

 CH2             1.336-15
 CH3             2.1687-8
 CH2OH           2.146-13
 CH3O            4.415-15
 CH4             1.0572-2
 CH3OH           2.9339-9
 *CN             2.440-15
 *CO             2.0873-1
 *CO2            6.1189-3
 COOH            2.290-12
 C2H2,acetylene  2.3759-8
 C2H2,vinylidene 1.182-15
 CH2CO,ketene    2.0157-8
 O(CH)2O         5.611-15
 C2H3,vinyl      1.742-13
 CH3CN           1.5871-7
 CH3CO,acetyl    1.051-12
 C2H4            7.0353-7
 C2H4O,ethylen-o 6.103-16
 CH3CHO,ethanal  9.370-10
 CH3COOH         8.915-12
 C2H5            8.504-12
 C2H6            2.4515-7
 C2H5OH          9.332-13
 CH3OCH3         9.385-16
 OCCN            2.561-16
 C2N2            1.854-12
 C3H3,2-propynl  7.920-14
 C3H4,allene     7.767-12
 C3H4,propyne    2.549-11
 C3H4,cyclo-     9.838-16
 C3H5,allyl      2.937-13
 C3H6,propylene  3.503-10
 C3H6,cyclo-     2.960-13
 C3H6O,acetone   4.040-13
 C3H6O,propanal  5.718-14
 C3H7,n-propyl   6.043-16
 C3H7,i-propyl   8.082-16
 C3H8            1.942-11
 C3H8O,2propanol 1.124-16
 C3O2            3.101-13
 C4H2,butadiyne  6.529-16
 C4H6,butadiene  1.753-13
 C4H6,1butyne    2.140-15
 C4H6,2butyne    4.485-15
 C4H8,1-butene   2.605-14
 C4H8,cis2-buten 1.624-14
 C4H8,tr2-butene 1.844-14
 C4H8,isobutene  2.531-14
 C4H10,n-butane  1.527-15
 C4H10,isobutane 6.909-16
 C5H6,1,3cyclo-  2.036-15
 C6H6            8.737-14
 *H              3.3514-8
 HCN             2.8030-5
 HCO             3.149-10
 HCCO            4.100-15
 HNC             1.0542-7
 HNCO            3.3762-7
 *H2             3.1616-1
 HCHO,formaldehy 1.9371-7
 HCOOH           1.1253-8
 H2O             1.2160-2
 NCO             4.756-15
 *NH             7.208-16
 NH2             2.866-11
 NH3             1.4317-4
 *NO             3.976-14
 *N2             4.3842-1
 N2H2            4.337-16
 N2H4            1.082-16
 *OH             1.160-11
 C(gr)           7.6772-3

  * THERMODYNAMIC PROPERTIES FITTED TO 20000.K









         THERMODYNAMIC EQUILIBRIUM COMBUSTION PROPERTIES AT ASSIGNED

                                     VOLUME

 CASE =                

             REACTANT                       MOLES         ENERGY      TEMP
                                                         KJ/KG-MOL      K
 FUEL        C2H6                         1.0000000    -86248.563    300.000
 OXIDANT     O2                           3.5000000     -2439.995    300.000
 OXIDANT     N2                          13.1667000     -2440.472    300.000

 O/F=    4.44200  %FUEL= 18.375603  R,EQ.RATIO= 3.600000  PHI,EQ.RATIO= 3.600000

 THERMODYNAMIC PROPERTIES

 P, BAR            5.7833
 T, K             1174.78
 RHO, KG/CU M    1.1623 0
 H, KJ/KG         -98.543
 U, KJ/KG         -596.12
 G, KJ/KG        -12736.7
 S, KJ/(KG)(K)    10.7580

 M, (1/n)          19.630
 MW, MOL WT        19.338
 (dLV/dLP)t      -1.02639
 (dLV/dLT)p        1.3387
 Cp, KJ/(KG)(K)    3.6895
 GAMMAs            1.2185
 SON VEL,M/SEC      778.7

 MOLE FRACTIONS

 CH2             1.009-15
 CH3             1.9782-8
 CH2OH           1.986-13
 CH3O            3.981-15
 CH4             1.1471-2
 CH3OH           3.1433-9
 *CN             1.747-15
 *CO             2.0337-1
 *CO2            6.6011-3
 COOH            2.172-12
 C2H2,acetylene  2.0229-8
 C2H2,vinylidene 8.777-16
 CH2CO,ketene    1.8978-8
 O(CH)2O         5.339-15
 C2H3,vinyl      1.420-13
 CH3CN           1.5293-7
 CH3CO,acetyl    9.666-13
 C2H4            6.9444-7
 C2H4O,ethylen-o 5.846-16
 CH3CHO,ethanal  9.770-10
 CH3COOH         1.014-11
 C2H5            8.041-12
 C2H6            2.7150-7
 C2H5OH          1.036-12
 CH3OCH3         1.005-15
 OCCN            1.948-16
 C2N2            1.447-12
 C3H3,2-propynl  6.281-14
 C3H4,allene     6.898-12
 C3H4,propyne    2.275-11
 C3H4,cyclo-     8.201-16
 C3H5,allyl      2.675-13
 C3H6,propylene  3.587-10
 C3H6,cyclo-     2.956-13
 C3H6O,acetone   4.434-13
 C3H6O,propanal  6.109-14
 C3H7,n-propyl   5.858-16
 C3H7,i-propyl   7.902-16
 C3H8            2.210-11
 C3H8O,2propanol 1.297-16
 C3O2            2.668-13
 C4H2,butadiyne  4.699-16
 C4H6,butadiene  1.668-13
 C4H6,1butyne    1.961-15
 C4H6,2butyne    4.182-15
 C4H8,1-butene   2.741-14
 C4H8,cis2-buten 1.722-14
 C4H8,tr2-butene 1.956-14
 C4H8,isobutene  2.696-14
 C4H10,n-butane  1.784-15
 C4H10,isobutane 8.121-16
 C5H6,1,3cyclo-  1.911-15
 C6H6            8.535-14
 *H              2.8434-8
 HCN             2.5321-5
 HCO             2.754-10
 HCCO            3.237-15
 HNC             9.0886-8
 HNCO            3.3033-7
 *H2             3.1813-1
 HCHO,formaldehy 1.9109-7
 HCOOH           1.2132-8
 H2O             1.3219-2
 NCO             3.834-15
 *NH             5.501-16
 NH2             2.498-11
 NH3             1.4988-4
 *NO             3.305-14
 *N2             4.3214-1
 N2H2            3.699-16
 N2H4            1.018-16
 *OH             1.015-11
 C(gr)           1.4887-2

  * THERMODYNAMIC PROPERTIES FITTED TO 20000.K



