
 *******************************************************************************

         NASA-GLENN CHEMICAL EQUILIBRIUM PROGRAM CEA2, MAY 21, 2004
                   BY  BONNIE MCBRIDE AND SANFORD GORDON
      REFS: NASA RP-1311, PART I, 1994 AND NASA RP-1311, PART II, 1996

 *******************************************************************************



 problem    phi,eq.ratio=3.7,3.8,3.9,4,
       uv   rho,kg/m**3=1.42658,  t,k=3800
 react
   fuel=C3H8 moles=1 t,k=300
   oxid=O2 moles=5 t,k=300
 output
      trace=1e-16 siunits short
 end




         THERMODYNAMIC EQUILIBRIUM COMBUSTION PROPERTIES AT ASSIGNED

                                     VOLUME

 CASE =                

             REACTANT                       MOLES         ENERGY      TEMP
                                                         KJ/KG-MOL      K
 FUEL        C3H8                         1.0000000   -107037.874    300.000
 OXIDANT     O2                           5.0000000     -2439.995    300.000

 O/F=    0.98063  %FUEL= 50.488908  R,EQ.RATIO= 3.700000  PHI,EQ.RATIO= 3.700000

 THERMODYNAMIC PROPERTIES

 P, BAR            14.598
 T, K             1620.99
 RHO, KG/CU M    1.4266 0
 H, KJ/KG         -240.06
 U, KJ/KG        -1263.32
 G, KJ/KG        -24351.3
 S, KJ/(KG)(K)    14.8743

 M, (1/n)          13.171
 MW, MOL WT        12.660
 (dLV/dLP)t      -1.01041
 (dLV/dLT)p        1.0810
 Cp, KJ/(KG)(K)    3.1144
 GAMMAs            1.2928
 SON VEL,M/SEC     1150.1

 MOLE FRACTIONS

 *CH             7.527-15
 CH2             8.910-11
 CH3             3.4692-6
 CH2OH           4.156-11
 CH3O            2.317-12
 CH4             7.2901-3
 CH3OH           6.5729-9
 *CO             3.8808-1
 *CO2            5.6815-4
 COOH            6.014-11
 C2H             1.681-12
 C2H2,acetylene  1.9272-5
 C2H2,vinylidene 1.416-10
 CH2CO,ketene    8.3540-7
 O(CH)2O         3.355-13
 C2H3,vinyl      1.7208-9
 CH3CO,acetyl    2.599-10
 C2H4            1.5488-5
 C2H4O,ethylen-o 8.602-14
 CH3CHO,ethanal  5.7250-9
 CH3COOH         4.896-12
 C2H5            2.2731-9
 C2H6            4.9406-7
 C2H5OH          3.549-12
 CH3OCH3         1.370-14
 C2O             2.596-12
 C3H3,1-propynl  8.800-14
 C3H3,2-propynl  2.1773-9
 C3H4,allene     8.3435-9
 C3H4,propyne    2.2741-8
 C3H4,cyclo-     1.092-11
 C3H5,allyl      3.172-10
 C3H6,propylene  1.2624-8
 C3H6,cyclo-     2.729-11
 C3H6O,acetone   2.342-12
 C3H6O,propanal  9.106-13
 C3H7,n-propyl   4.079-13
 C3H7,i-propyl   3.949-13
 C3H8            9.226-11
 C3H8O,1propanol 6.007-16
 C3H8O,2propanol 6.684-16
 C3O2            1.177-10
 C4H2,butadiyne  2.543-10
 C4H4,1,3-cyclo- 4.812-15
 C4H6,butadiene  9.604-11
 C4H6,1butyne    4.586-12
 C4H6,2butyne    5.003-12
 C4H6,cyclo-     1.257-13
 C4H8,1-butene   2.193-12
 C4H8,cis2-buten 1.017-12
 C4H8,tr2-butene 1.142-12
 C4H8,isobutene  1.348-12
 C4H8,cyclo-     7.479-16
 C4H9,n-butyl    1.908-16
 C4H9,i-butyl    1.166-16
 C4H9,s-butyl    1.279-16
 C4H10,n-butane  1.756-14
 C4H10,isobutane 6.292-15
 C5H6,1,3cyclo-  1.827-12
 C5H8,cyclo-     7.674-15
 C5H10,1-pentene 3.209-16
 C6H2            3.586-15
 C6H5,phenyl     2.264-15
 C6H6            1.791-11
 C6H5OH,phenol   9.188-16
 C7H7,benzyl     5.990-16
 C7H8            2.121-14
 C8H8,styrene    2.755-16
 *H              1.3048-5
 HCO             7.7924-8
 HCCO            4.401-11
 *H2             5.6262-1
 HCHO,formaldehy 1.4416-6
 HCOOH           6.9707-9
 H2O             2.5469-3
 *O              4.681-14
 *OH             2.8610-9
 C(gr)           3.8844-2

  * THERMODYNAMIC PROPERTIES FITTED TO 20000.K









         THERMODYNAMIC EQUILIBRIUM COMBUSTION PROPERTIES AT ASSIGNED

                                     VOLUME

 CASE =                

             REACTANT                       MOLES         ENERGY      TEMP
                                                         KJ/KG-MOL      K
 FUEL        C3H8                         1.0000000   -107037.874    300.000
 OXIDANT     O2                           5.0000000     -2439.995    300.000

 O/F=    0.95483  %FUEL= 51.155425  R,EQ.RATIO= 3.800000  PHI,EQ.RATIO= 3.800000

 THERMODYNAMIC PROPERTIES

 P, BAR            14.284
 T, K             1585.24
 RHO, KG/CU M    1.4266 0
 H, KJ/KG         -277.73
 U, KJ/KG        -1278.99
 G, KJ/KG        -23816.9
 S, KJ/(KG)(K)    14.8490

 M, (1/n)          13.164
 MW, MOL WT        12.520
 (dLV/dLP)t      -1.01215
 (dLV/dLT)p        1.0975
 Cp, KJ/(KG)(K)    3.2308
 GAMMAs            1.2875
 SON VEL,M/SEC     1135.4

 MOLE FRACTIONS

 *CH             2.799-15
 CH2             4.684-11
 CH3             2.7413-6
 CH2OH           3.430-11
 CH3O            1.795-12
 CH4             8.3373-3
 CH3OH           7.4025-9
 *CO             3.7777-1
 *CO2            7.0039-4
 COOH            5.467-11
 C2H             6.581-13
 C2H2,acetylene  1.3254-5
 C2H2,vinylidene 7.193-11
 CH2CO,ketene    7.2788-7
 O(CH)2O         3.015-13
 C2H3,vinyl      1.0582-9
 CH3CO,acetyl    2.109-10
 C2H4            1.4364-5
 C2H4O,ethylen-o 7.514-14
 CH3CHO,ethanal  6.0629-9
 CH3COOH         6.325-12
 C2H5            1.8834-9
 C2H6            5.7331-7
 C2H5OH          4.183-12
 CH3OCH3         1.488-14
 C2O             1.283-12
 C3H3,1-propynl  4.226-14
 C3H3,2-propynl  1.2576-9
 C3H4,allene     6.1041-9
 C3H4,propyne    1.6832-8
 C3H4,cyclo-     6.926-12
 C3H5,allyl      2.410-10
 C3H6,propylene  1.2289-8
 C3H6,cyclo-     2.506-11
 C3H6O,acetone   2.692-12
 C3H6O,propanal  9.834-13
 C3H7,n-propyl   3.454-13
 C3H7,i-propyl   3.413-13
 C3H8            1.099-10
 C3H8O,1propanol 7.293-16
 C3H8O,2propanol 8.288-16
 C3O2            8.741-11
 C4H2,butadiyne  1.201-10
 C4H4,1,3-cyclo- 2.548-15
 C4H6,butadiene  7.904-11
 C4H6,1butyne    3.480-12
 C4H6,2butyne    3.952-12
 C4H6,cyclo-     9.706-14
 C4H8,1-butene   2.192-12
 C4H8,cis2-buten 1.036-12
 C4H8,tr2-butene 1.164-12
 C4H8,isobutene  1.386-12
 C4H8,cyclo-     7.137-16
 C4H9,n-butyl    1.692-16
 C4H9,i-butyl    1.049-16
 C4H9,s-butyl    1.137-16
 C4H10,n-butane  2.141-14
 C4H10,isobutane 7.783-15
 C5H6,1,3cyclo-  1.460-12
 C5H8,cyclo-     7.239-15
 C5H10,1-pentene 3.302-16
 C6H2            1.165-15
 C6H5,phenyl     1.297-15
 C6H6            1.568-11
 C6H5OH,phenol   8.515-16
 C7H7,benzyl     4.169-16
 C7H8            1.952-14
 C8H8,styrene    2.134-16
 *H              8.9886-6
 HCO             5.8544-8
 HCCO            2.627-11
 *H2             5.6121-1
 HCHO,formaldehy 1.3945-6
 HCOOH           8.2619-9
 H2O             3.0629-3
 *O              2.452-14
 *OH             2.1466-9
 C(gr)           4.8879-2

  * THERMODYNAMIC PROPERTIES FITTED TO 20000.K









         THERMODYNAMIC EQUILIBRIUM COMBUSTION PROPERTIES AT ASSIGNED

                                     VOLUME

 CASE =                

             REACTANT                       MOLES         ENERGY      TEMP
                                                         KJ/KG-MOL      K
 FUEL        C3H8                         1.0000000   -107037.874    300.000
 OXIDANT     O2                           5.0000000     -2439.995    300.000

 O/F=    0.93034  %FUEL= 51.804234  R,EQ.RATIO= 3.900000  PHI,EQ.RATIO= 3.900000

 THERMODYNAMIC PROPERTIES

 P, BAR            13.990
 T, K             1552.20
 RHO, KG/CU M    1.4266 0
 H, KJ/KG         -313.60
 U, KJ/KG        -1294.25
 G, KJ/KG        -23322.0
 S, KJ/(KG)(K)    14.8230

 M, (1/n)          13.160
 MW, MOL WT        12.391
 (dLV/dLP)t      -1.01410
 (dLV/dLT)p        1.1164
 Cp, KJ/(KG)(K)    3.3657
 GAMMAs            1.2818
 SON VEL,M/SEC     1121.2

 MOLE FRACTIONS

 *CH             1.077-15
 CH2             2.517-11
 CH3             2.1825-6
 CH2OH           2.848-11
 CH3O            1.402-12
 CH4             9.4859-3
 CH3OH           8.2968-9
 *CO             3.6790-1
 *CO2            8.5694-4
 COOH            4.985-11
 C2H             2.661-13
 C2H2,acetylene  9.2302-6
 C2H2,vinylidene 3.739-11
 CH2CO,ketene    6.3690-7
 O(CH)2O         2.718-13
 C2H3,vinyl      6.613-10
 CH3CO,acetyl    1.724-10
 C2H4            1.3347-5
 C2H4O,ethylen-o 6.592-14
 CH3CHO,ethanal  6.4040-9
 CH3COOH         8.096-12
 C2H5            1.5696-9
 C2H6            6.6129-7
 C2H5OH          4.900-12
 CH3OCH3         1.610-14
 C2O             6.495-13
 C3H3,1-propynl  2.081-14
 C3H3,2-propynl  7.398-10
 C3H4,allene     4.5116-9
 C3H4,propyne    1.2580-8
 C3H4,cyclo-     4.461-12
 C3H5,allyl      1.848-10
 C3H6,propylene  1.1964-8
 C3H6,cyclo-     2.306-11
 C3H6O,acetone   3.078-12
 C3H6O,propanal  1.058-12
 C3H7,n-propyl   2.939-13
 C3H7,i-propyl   2.962-13
 C3H8            1.299-10
 C3H8O,1propanol 8.788-16
 C3H8O,2propanol 1.019-15
 C3O2            6.559-11
 C4H2,butadiyne  5.820-11
 C4H4,1,3-cyclo- 1.379-15
 C4H6,butadiene  6.546-11
 C4H6,1butyne    2.663-12
 C4H6,2butyne    3.145-12
 C4H6,cyclo-     7.555-14
 C4H8,1-butene   2.189-12
 C4H8,cis2-buten 1.053-12
 C4H8,tr2-butene 1.183-12
 C4H8,isobutene  1.422-12
 C4H8,cyclo-     6.817-16
 C4H9,n-butyl    1.505-16
 C4H9,s-butyl    1.014-16
 C4H10,n-butane  2.592-14
 C4H10,isobutane 9.548-15
 C5H6,1,3cyclo-  1.176-12
 C5H8,cyclo-     6.839-15
 C5H10,1-pentene 3.391-16
 C6H2            3.936-16
 C6H5,phenyl     7.566-16
 C6H6            1.377-11
 C6H5OH,phenol   7.908-16
 C7H7,benzyl     2.937-16
 C7H8            1.800-14
 C8H8,styrene    1.666-16
 *H              6.2735-6
 HCO             4.4403-8
 HCCO            1.596-11
 *H2             5.5963-1
 HCHO,formaldehy 1.3497-6
 HCOOH           9.7342-9
 H2O             3.6579-3
 *O              1.314-14
 *OH             1.6264-9
 C(gr)           5.8436-2

  * THERMODYNAMIC PROPERTIES FITTED TO 20000.K









         THERMODYNAMIC EQUILIBRIUM COMBUSTION PROPERTIES AT ASSIGNED

                                     VOLUME

 CASE =                

             REACTANT                       MOLES         ENERGY      TEMP
                                                         KJ/KG-MOL      K
 FUEL        C3H8                         1.0000000   -107037.874    300.000
 OXIDANT     O2                           5.0000000     -2439.995    300.000

 O/F=    0.90709  %FUEL= 52.436032  R,EQ.RATIO= 4.000000  PHI,EQ.RATIO= 4.000000

 THERMODYNAMIC PROPERTIES

 P, BAR            13.715
 T, K             1521.78
 RHO, KG/CU M    1.4266 0
 H, KJ/KG         -347.73
 U, KJ/KG        -1309.10
 G, KJ/KG        -22864.8
 S, KJ/(KG)(K)    14.7966

 M, (1/n)          13.161
 MW, MOL WT        12.272
 (dLV/dLP)t      -1.01626
 (dLV/dLT)p        1.1379
 Cp, KJ/(KG)(K)    3.5201
 GAMMAs            1.2757
 SON VEL,M/SEC     1107.4

 MOLE FRACTIONS

 *CH             4.305-16
 CH2             1.386-11
 CH3             1.7525-6
 CH2OH           2.381-11
 CH3O            1.106-12
 CH4             1.0731-2
 CH3OH           9.2477-9
 *CO             3.5841-1
 *CO2            1.0392-3
 COOH            4.559-11
 C2H             1.116-13
 C2H2,acetylene  6.5188-6
 C2H2,vinylidene 1.994-11
 CH2CO,ketene    5.5986-7
 O(CH)2O         2.460-13
 C2H3,vinyl      4.209-10
 CH3CO,acetyl    1.420-10
 C2H4            1.2429-5
 C2H4O,ethylen-o 5.809-14
 CH3CHO,ethanal  6.7433-9
 CH3COOH         1.025-11
 C2H5            1.3166-9
 C2H6            7.5775-7
 C2H5OH          5.697-12
 CH3OCH3         1.735-14
 C2O             3.379-13
 C3H3,1-propynl  1.053-14
 C3H3,2-propynl  4.444-10
 C3H4,allene     3.3730-9
 C3H4,propyne    9.5066-9
 C3H4,cyclo-     2.923-12
 C3H5,allyl      1.431-10
 C3H6,propylene  1.1650-8
 C3H6,cyclo-     2.128-11
 C3H6O,acetone   3.496-12
 C3H6O,propanal  1.135-12
 C3H7,n-propyl   2.516-13
 C3H7,i-propyl   2.582-13
 C3H8            1.525-10
 C3H8O,1propanol 1.050-15
 C3H8O,2propanol 1.242-15
 C3O2            4.975-11
 C4H2,butadiyne  2.902-11
 C4H4,1,3-cyclo- 7.642-16
 C4H6,butadiene  5.460-11
 C4H6,1butyne    2.059-12
 C4H6,2butyne    2.524-12
 C4H6,cyclo-     5.937-14
 C4H8,1-butene   2.184-12
 C4H8,cis2-buten 1.069-12
 C4H8,tr2-butene 1.202-12
 C4H8,isobutene  1.456-12
 C4H8,cyclo-     6.519-16
 C4H9,n-butyl    1.344-16
 C4H10,n-butane  3.110-14
 C4H10,isobutane 1.161-14
 C5H6,1,3cyclo-  9.539-13
 C5H8,cyclo-     6.471-15
 C5H10,1-pentene 3.475-16
 C6H2            1.388-16
 C6H5,phenyl     4.509-16
 C6H6            1.215-11
 C6H5OH,phenol   7.359-16
 C7H7,benzyl     2.097-16
 C7H8            1.664-14
 C8H8,styrene    1.313-16
 *H              4.4425-6
 HCO             3.4031-8
 HCCO            9.887-12
 *H2             5.5789-1
 HCHO,formaldehy 1.3071-6
 HCOOH           1.1387-8
 H2O             4.3337-3
 *O              7.217-15
 *OH             1.2454-9
 C(gr)           6.7566-2

  * THERMODYNAMIC PROPERTIES FITTED TO 20000.K



