
 *******************************************************************************

         NASA-GLENN CHEMICAL EQUILIBRIUM PROGRAM CEA2, MAY 21, 2004
                   BY  BONNIE MCBRIDE AND SANFORD GORDON
      REFS: NASA RP-1311, PART I, 1994 AND NASA RP-1311, PART II, 1996

 *******************************************************************************



 problem    phi,eq.ratio=0.5,0.6,0.7,0.8,0.9,1,1.1,1.2,1.3,1.4,1.5,1.6,1.7,1.8,1.
 9,2,
       uv   rho,kg/m**3=1.27235,  t,k=3800
 react
   fuel=C6H6 moles=1 t,k=300
   oxid=O2 moles=7.5 t,k=300
   oxid=N2 moles=28.2143 t,k=300
 output
      trace=1e-16 siunits short
 end




         THERMODYNAMIC EQUILIBRIUM COMBUSTION PROPERTIES AT ASSIGNED

                                     VOLUME

 CASE =                

             REACTANT                       MOLES         ENERGY      TEMP
                                                         KJ/KG-MOL      K
 FUEL        C6H6                         1.0000000     80537.766    300.000
 OXIDANT     O2                           7.5000000     -2439.995    300.000
 OXIDANT     N2                          28.2143000     -2440.472    300.000

 O/F=   26.38190  %FUEL=  3.652047  R,EQ.RATIO= 0.500000  PHI,EQ.RATIO= 0.500000

 THERMODYNAMIC PROPERTIES

 P, BAR            6.8767
 T, K             1906.13
 RHO, KG/CU M    1.2723 0
 H, KJ/KG          496.63
 U, KJ/KG         -43.843
 G, KJ/KG        -15609.7
 S, KJ/(KG)(K)     8.4498

 M, (1/n)          29.323
 (dLV/dLP)t      -1.00006
 (dLV/dLT)p        1.0020
 Cp, KJ/(KG)(K)    1.3759
 GAMMAs            1.2608
 SON VEL,M/SEC      825.5

 MOLE FRACTIONS

 *CO             5.7211-5
 *CO2            8.2202-2
 COOH            1.459-10
 *H              8.2312-7
 HCN             2.903-16
 HCO             1.427-13
 HNCO            5.076-13
 HNO             9.2010-9
 HNO2            2.2180-7
 HNO3            1.346-10
 HO2             1.1819-6
 *H2             6.7262-6
 HCHO,formaldehy 1.104-15
 HCOOH           6.558-12
 H2O             4.0885-2
 H2O2            4.5991-8
 *N              7.291-11
 NCO             2.627-14
 *NH             4.150-12
 NH2             1.047-12
 NH3             2.516-12
 NH2OH           3.072-15
 *NO             4.0031-3
 NO2             1.4920-5
 NO3             3.418-11
 *N2             7.7162-1
 N2O             5.9102-7
 N2O3            8.880-13
 N2O4            1.401-16
 N3              9.243-16
 *O              3.8006-5
 *OH             4.7302-4
 *O2             1.0070-1
 O3              3.2018-9

  * THERMODYNAMIC PROPERTIES FITTED TO 20000.K









         THERMODYNAMIC EQUILIBRIUM COMBUSTION PROPERTIES AT ASSIGNED

                                     VOLUME

 CASE =                

             REACTANT                       MOLES         ENERGY      TEMP
                                                         KJ/KG-MOL      K
 FUEL        C6H6                         1.0000000     80537.766    300.000
 OXIDANT     O2                           7.5000000     -2439.995    300.000
 OXIDANT     N2                          28.2143000     -2440.472    300.000

 O/F=   21.98492  %FUEL=  4.350679  R,EQ.RATIO= 0.600000  PHI,EQ.RATIO= 0.600000

 THERMODYNAMIC PROPERTIES

 P, BAR            7.7086
 T, K             2142.28
 RHO, KG/CU M    1.2723 0
 H, KJ/KG          569.81
 U, KJ/KG         -36.049
 G, KJ/KG        -17815.2
 S, KJ/(KG)(K)     8.5820

 M, (1/n)          29.400
 (dLV/dLP)t      -1.00028
 (dLV/dLT)p        1.0089
 Cp, KJ/(KG)(K)    1.4750
 GAMMAs            1.2421
 SON VEL,M/SEC      867.5

 MOLE FRACTIONS

 *CN             3.000-16
 *CO             5.0289-4
 *CO2            9.7748-2
 COOH            1.7095-9
 *H              1.0167-5
 HCN             4.624-14
 HCO             1.026-11
 HNC             2.991-15
 HNCO            1.306-11
 HNO             4.6883-8
 HNO2            3.0845-7
 HNO3            1.237-10
 HO2             2.7756-6
 *H2             4.8931-5
 HCHO,formaldehy 7.777-14
 HCOOH           7.233-11
 H2O             4.8352-2
 H2O2            1.0937-7
 *N              1.9350-9
 NCO             1.397-12
 *NH             1.338-10
 NH2             2.894-11
 NH3             3.750-11
 NH2OH           4.471-14
 *NO             6.6503-3
 NO2             1.5720-5
 NO3             4.601-11
 *N2             7.6669-1
 N2H2            2.012-15
 N2O             1.0189-6
 N2O3            1.449-12
 N2O4            1.342-16
 N3              2.108-14
 N3H             2.038-15
 *O              1.8700-4
 *OH             1.4353-3
 *O2             7.8358-2
 O3              6.5314-9

  * THERMODYNAMIC PROPERTIES FITTED TO 20000.K









         THERMODYNAMIC EQUILIBRIUM COMBUSTION PROPERTIES AT ASSIGNED

                                     VOLUME

 CASE =                

             REACTANT                       MOLES         ENERGY      TEMP
                                                         KJ/KG-MOL      K
 FUEL        C6H6                         1.0000000     80537.766    300.000
 OXIDANT     O2                           7.5000000     -2439.995    300.000
 OXIDANT     N2                          28.2143000     -2440.472    300.000

 O/F=   18.84422  %FUEL=  5.039252  R,EQ.RATIO= 0.700000  PHI,EQ.RATIO= 0.700000

 THERMODYNAMIC PROPERTIES

 P, BAR            8.4379
 T, K             2348.31
 RHO, KG/CU M    1.2724 0
 H, KJ/KG          634.81
 U, KJ/KG         -28.367
 G, KJ/KG        -19787.9
 S, KJ/(KG)(K)     8.6968

 M, (1/n)          29.442
 (dLV/dLP)t      -1.00103
 (dLV/dLT)p        1.0293
 Cp, KJ/(KG)(K)    1.6604
 GAMMAs            1.2183
 SON VEL,M/SEC      898.9

 MOLE FRACTIONS

 *CN             2.656-14
 *CO             2.5109-3
 *CO2            1.1145-1
 COOH            1.0309-8
 *H              6.2722-5
 HCN             2.028-12
 HCO             2.378-10
 HNC             1.780-13
 HNCO            1.475-10
 HNO             1.4593-7
 HNO2            3.5694-7
 HNO3            1.003-10
 HO2             4.6199-6
 *H2             2.1628-4
 HCHO,formaldehy 1.867-12
 HCOOH           4.404-10
 H2O             5.5205-2
 H2O2            1.9236-7
 *N              1.9661-8
 NCO             2.521-11
 *NH             1.6282-9
 NH2             3.309-10
 NH3             2.902-10
 NH2OH           3.214-13
 *NO             8.8613-3
 NO2             1.4244-5
 NO3             4.664-11
 *N2             7.6113-1
 N2H2            2.812-14
 N2O             1.4086-6
 N2O3            1.693-12
 N2O4            1.013-16
 N3              1.944-13
 N3H             2.031-14
 *O              5.3696-4
 *OH             3.0520-3
 *O2             5.6950-2
 O3              8.9262-9

  * THERMODYNAMIC PROPERTIES FITTED TO 20000.K









         THERMODYNAMIC EQUILIBRIUM COMBUSTION PROPERTIES AT ASSIGNED

                                     VOLUME

 CASE =                

             REACTANT                       MOLES         ENERGY      TEMP
                                                         KJ/KG-MOL      K
 FUEL        C6H6                         1.0000000     80537.766    300.000
 OXIDANT     O2                           7.5000000     -2439.995    300.000
 OXIDANT     N2                          28.2143000     -2440.472    300.000

 O/F=   16.48869  %FUEL=  5.717981  R,EQ.RATIO= 0.800000  PHI,EQ.RATIO= 0.800000

 THERMODYNAMIC PROPERTIES

 P, BAR            9.0374
 T, K             2513.22
 RHO, KG/CU M    1.2724 0
 H, KJ/KG          689.50
 U, KJ/KG         -20.795
 G, KJ/KG        -21422.8
 S, KJ/(KG)(K)     8.7984

 M, (1/n)          29.419
 (dLV/dLP)t      -1.00269
 (dLV/dLT)p        1.0717
 Cp, KJ/(KG)(K)    1.9796
 GAMMAs            1.1923
 SON VEL,M/SEC      920.3

 MOLE FRACTIONS

 *C              4.114-16
 CH2OH           1.625-16
 *CN             6.703-13
 *CO             8.1299-3
 *CO2            1.2108-1
 COOH            3.6887-8
 *H              2.2827-4
 HCN             3.354-11
 HCO             2.3215-9
 HNC             3.624-12
 HNCO            8.851-10
 HNO             3.0683-7
 HNO2            3.4892-7
 HNO3            7.057-11
 HO2             5.7658-6
 *H2             6.6132-4
 HCHO,formaldehy 1.978-11
 HCOOH           1.6827-9
 H2O             6.1375-2
 H2O2            2.6353-7
 *N              9.5297-8
 NCO             1.972-10
 *NH             9.4223-9
 NH2             1.9405-9
 NH3             1.3798-9
 NH2OH           1.338-12
 *NO             9.8191-3
 NO2             1.1134-5
 NO3             3.613-11
 *N2             7.5460-1
 N2H2            1.911-13
 N2O             1.6099-6
 N2O3            1.449-12
 N3              8.868-13
 N3H             1.033-13
 *O              1.0043-3
 *OH             4.9058-3
 *O2             3.8177-2
 O3              8.5325-9

  * THERMODYNAMIC PROPERTIES FITTED TO 20000.K









         THERMODYNAMIC EQUILIBRIUM COMBUSTION PROPERTIES AT ASSIGNED

                                     VOLUME

 CASE =                

             REACTANT                       MOLES         ENERGY      TEMP
                                                         KJ/KG-MOL      K
 FUEL        C6H6                         1.0000000     80537.766    300.000
 OXIDANT     O2                           7.5000000     -2439.995    300.000
 OXIDANT     N2                          28.2143000     -2440.472    300.000

 O/F=   14.65661  %FUEL=  6.387078  R,EQ.RATIO= 0.900000  PHI,EQ.RATIO= 0.900000

 THERMODYNAMIC PROPERTIES

 P, BAR            9.4959
 T, K             2631.33
 RHO, KG/CU M    1.2724 0
 H, KJ/KG          733.00
 U, KJ/KG         -13.330
 G, KJ/KG        -22659.2
 S, KJ/(KG)(K)     8.8899

 M, (1/n)          29.314
 (dLV/dLP)t      -1.00502
 (dLV/dLT)p        1.1279
 Cp, KJ/(KG)(K)    2.3731
 GAMMAs            1.1724
 SON VEL,M/SEC      935.4

 MOLE FRACTIONS

 *C              7.189-15
 *CH             7.810-16
 CH2             9.201-16
 CH3             1.312-15
 CH2OH           1.756-15
 CH3O            3.183-16
 CH4             2.133-16
 *CN             6.487-12
 *CO             1.8865-2
 *CO2            1.2495-1
 COOH            8.7398-8
 OCCN            2.148-16
 C2O             9.749-16
 *H              5.5597-4
 HCN             2.657-10
 HCO             1.1695-8
 HNC             3.278-11
 HNCO            3.2729-9
 HNO             4.7082-7
 HNO2            2.9231-7
 HNO3            4.280-11
 HO2             5.6396-6
 *H2             1.5431-3
 HCHO,formaldehy 1.127-10
 HCOOH           4.4630-9
 H2O             6.6927-2
 H2O2            2.9326-7
 *N              2.6015-7
 NCO             8.060-10
 *NH             3.0859-8
 NH2             6.8729-9
 NH3             4.5824-9
 NH2OH           3.651-12
 *NO             9.3048-3
 NO2             7.5389-6
 NO3             2.172-11
 *N2             7.4678-1
 NCN             3.564-16
 N2H2            7.467-13
 NH2NO2          1.179-16
 N2O             1.5599-6
 N2O3            9.291-13
 N3              2.333-12
 N3H             3.123-13
 *O              1.3301-3
 *OH             6.3161-3
 *O2             2.3409-2
 O3              5.8967-9

  * THERMODYNAMIC PROPERTIES FITTED TO 20000.K









         THERMODYNAMIC EQUILIBRIUM COMBUSTION PROPERTIES AT ASSIGNED

                                     VOLUME

 CASE =                

             REACTANT                       MOLES         ENERGY      TEMP
                                                         KJ/KG-MOL      K
 FUEL        C6H6                         1.0000000     80537.766    300.000
 OXIDANT     O2                           7.5000000     -2439.995    300.000
 OXIDANT     N2                          28.2143000     -2440.472    300.000

 O/F=   13.19095  %FUEL=  7.046744  R,EQ.RATIO= 1.000000  PHI,EQ.RATIO= 1.000000

 THERMODYNAMIC PROPERTIES

 P, BAR            9.8251
 T, K             2705.52
 RHO, KG/CU M    1.2723 0
 H, KJ/KG          766.23
 U, KJ/KG         -5.9707
 G, KJ/KG        -23511.5
 S, KJ/(KG)(K)     8.9734

 M, (1/n)          29.131
 (dLV/dLP)t      -1.00673
 (dLV/dLT)p        1.1676
 Cp, KJ/(KG)(K)    2.6430
 GAMMAs            1.1634
 SON VEL,M/SEC      947.8

 MOLE FRACTIONS

 *C              5.011-14
 *CH             6.626-15
 CH2             8.496-15
 CH3             1.266-14
 CH2OH           1.038-14
 CH3O            1.994-15
 CH4             2.241-15
 CH3OH           3.650-16
 *CN             3.201-11
 *CO             3.4706-2
 *CO2            1.2298-1
 COOH            1.5284-7
 CH2CO,ketene    3.333-16
 HO(CO)2OH       1.490-16
 OCCN            1.771-15
 C2O             8.803-15
 *H              1.0176-3
 HCN             1.2767-9
 HCO             3.7009-8
 HCCO            2.704-16
 HNC             1.701-10
 HNCO            8.6472-9
 HNO             5.6480-7
 HNO2            2.1114-7
 HNO3            2.197-11
 HO2             4.4600-6
 *H2             3.0125-3
 HCHO,formaldehy 4.192-10
 HCOOH           9.1253-9
 H2O             7.1900-2
 H2O2            2.7357-7
 *N              4.6493-7
 NCO             2.0633-9
 *NH             6.7086-8
 NH2             1.7114-8
 NH3             1.2025-8
 NH2OH           7.337-12
 *NO             7.6909-3
 NO2             4.3952-6
 NO3             1.014-11
 *N2             7.3763-1
 NCN             1.953-15
 N2H2            1.971-12
 NH2NO2          1.327-16
 N2O             1.3066-6
 N2O3            4.502-13
 N3              4.076-12
 N3H             6.479-13
 *O              1.3377-3
 *OH             6.8328-3
 *O2             1.2883-2
 O3              2.9943-9

  * THERMODYNAMIC PROPERTIES FITTED TO 20000.K









         THERMODYNAMIC EQUILIBRIUM COMBUSTION PROPERTIES AT ASSIGNED

                                     VOLUME

 CASE =                

             REACTANT                       MOLES         ENERGY      TEMP
                                                         KJ/KG-MOL      K
 FUEL        C6H6                         1.0000000     80537.766    300.000
 OXIDANT     O2                           7.5000000     -2439.995    300.000
 OXIDANT     N2                          28.2143000     -2440.472    300.000

 O/F=   11.99177  %FUEL=  7.697178  R,EQ.RATIO= 1.100000  PHI,EQ.RATIO= 1.100000

 THERMODYNAMIC PROPERTIES

 P, BAR            10.038
 T, K             2740.52
 RHO, KG/CU M    1.2724 0
 H, KJ/KG          790.25
 U, KJ/KG          1.2859
 G, KJ/KG        -24012.1
 S, KJ/(KG)(K)     9.0503

 M, (1/n)          28.881
 (dLV/dLP)t      -1.00652
 (dLV/dLT)p        1.1614
 Cp, KJ/(KG)(K)    2.6023
 GAMMAs            1.1665
 SON VEL,M/SEC      959.3

 MOLE FRACTIONS

 *C              1.827-13
 *CH             3.014-14
 CH2             4.582-14
 CH3             7.951-14
 CH2OH           4.137-14
 CH3O            8.159-15
 CH4             1.669-14
 CH3OH           1.753-15
 *CN             9.967-11
 *CO             5.4824-2
 *CO2            1.1593-1
 COOH            2.1333-7
 CH2CO,ketene    2.426-15
 HO(CO)2OH       2.526-16
 OCCN            8.389-15
 C2O             4.352-14
 *H              1.5178-3
 HCN             4.4829-9
 HCO             8.5294-8
 HCCO            1.674-15
 HNC             6.185-10
 HNCO            1.8344-8
 HNO             5.5052-7
 HNO2            1.2953-7
 HNO3            9.147-12
 HO2             2.8543-6
 *H2             5.2795-3
 HCHO,formaldehy 1.1866-9
 HCOOH           1.5604-8
 H2O             7.6157-2
 H2O2            2.1532-7
 *N              6.0036-7
 NCO             3.7811-9
 *NH             1.0803-7
 NH2             3.3444-8
 NH3             2.7464-8
 NH2OH           1.176-11
 *NO             5.5473-3
 NO2             2.1441-6
 NO3             3.543-12
 *N2             7.2719-1
 NCN             6.371-15
 N2H2            3.952-12
 NH2NO2          1.134-16
 N2O             9.4707-7
 N2O3            1.598-13
 N3              5.198-12
 N3H             1.019-12
 *O              1.0559-3
 *OH             6.3616-3
 *O2             6.1302-3
 O3              1.0891-9

  * THERMODYNAMIC PROPERTIES FITTED TO 20000.K









         THERMODYNAMIC EQUILIBRIUM COMBUSTION PROPERTIES AT ASSIGNED

                                     VOLUME

 CASE =                

             REACTANT                       MOLES         ENERGY      TEMP
                                                         KJ/KG-MOL      K
 FUEL        C6H6                         1.0000000     80537.766    300.000
 OXIDANT     O2                           7.5000000     -2439.995    300.000
 OXIDANT     N2                          28.2143000     -2440.472    300.000

 O/F=   10.99246  %FUEL=  8.338573  R,EQ.RATIO= 1.200000  PHI,EQ.RATIO= 1.200000

 THERMODYNAMIC PROPERTIES

 P, BAR            10.142
 T, K             2739.22
 RHO, KG/CU M    1.2723 0
 H, KJ/KG          805.54
 U, KJ/KG          8.4416
 G, KJ/KG        -24179.3
 S, KJ/(KG)(K)     9.1211

 M, (1/n)          28.573
 (dLV/dLP)t      -1.00471
 (dLV/dLT)p        1.1169
 Cp, KJ/(KG)(K)    2.2981
 GAMMAs            1.1810
 SON VEL,M/SEC      970.2

 MOLE FRACTIONS

 *C              4.054-13
 *CH             8.632-14
 CH2             1.698-13
 CH3             3.813-13
 CH2OH           1.256-13
 CH3O            2.476-14
 CH4             1.035-13
 CH3OH           6.884-15
 *CN             2.218-10
 *CO             7.8129-2
 *CO2            1.0488-1
 COOH            2.4762-7
 C2H2,acetylene  3.581-16
 CH2CO,ketene    1.303-14
 O(CH)2O         1.934-16
 HO(CO)2OH       3.459-16
 OCCN            2.693-14
 C2N2            3.120-16
 C2O             1.399-13
 C3O2            3.042-16
 *H              1.9255-3
 HCN             1.2926-8
 HCO             1.5603-7
 HCCO            6.945-15
 HNC             1.7812-9
 HNCO            3.3563-8
 HNO             4.4061-7
 HNO2            6.5686-8
 HNO3            2.931-12
 HO2             1.4494-6
 *H2             8.6656-3
 HCHO,formaldehy 2.8042-9
 HCOOH           2.3398-8
 H2O             7.9319-2
 H2O2            1.4124-7
 *N              5.8656-7
 NCO             5.3438-9
 *NH             1.3626-7
 NH2             5.4519-8
 NH3             5.7939-8
 NH2OH           1.566-11
 *NO             3.4490-3
 NO2             8.4242-7
 NO3             8.779-13
 *N2             7.1544-1
 NCN             1.411-14
 N2H2            6.418-12
 N2O             5.8702-7
 N2O3            3.946-14
 N3              5.051-12
 N3H             1.279-12
 *O              6.5624-4
 *OH             5.1148-3
 *O2             2.4177-3
 O3              2.702-10

  * THERMODYNAMIC PROPERTIES FITTED TO 20000.K









         THERMODYNAMIC EQUILIBRIUM COMBUSTION PROPERTIES AT ASSIGNED

                                     VOLUME

 CASE =                

             REACTANT                       MOLES         ENERGY      TEMP
                                                         KJ/KG-MOL      K
 FUEL        C6H6                         1.0000000     80537.766    300.000
 OXIDANT     O2                           7.5000000     -2439.995    300.000
 OXIDANT     N2                          28.2143000     -2440.472    300.000

 O/F=   10.14689  %FUEL=  8.971116  R,EQ.RATIO= 1.300000  PHI,EQ.RATIO= 1.300000

 THERMODYNAMIC PROPERTIES

 P, BAR            10.144
 T, K             2705.92
 RHO, KG/CU M    1.2724 0
 H, KJ/KG          812.74
 U, KJ/KG          15.499
 G, KJ/KG        -24044.9
 S, KJ/(KG)(K)     9.1864

 M, (1/n)          28.220
 (dLV/dLP)t      -1.00281
 (dLV/dLT)p        1.0702
 Cp, KJ/(KG)(K)    1.9702
 GAMMAs            1.2026
 SON VEL,M/SEC      979.2

 MOLE FRACTIONS

 *C              5.976-13
 *CH             1.701-13
 CH2             4.693-13
 CH3             1.505-12
 CH2OH           3.087-13
 CH3O            5.931-14
 CH4             5.728-13
 CH3OH           2.335-14
 *CN             3.778-10
 CNN             1.427-16
 *CO             1.0311-1
 *CO2            9.1351-2
 COOH            2.4490-7
 C2H2,acetylene  2.338-15
 CH2CO,ketene    5.635-14
 O(CH)2O         5.173-16
 HO(CO)2OH       3.942-16
 OCCN            6.407-14
 C2N2            1.217-15
 C2O             3.214-13
 C3O2            1.060-15
 *H              2.1267-3
 HCN             3.2405-8
 HCO             2.3713-7
 HCCO            2.125-14
 HNC             4.3196-9
 HNCO            5.4885-8
 HNO             2.9294-7
 HNO2            2.7398-8
 HNO3            7.138-13
 HO2             5.8395-7
 *H2             1.3544-2
 HCHO,formaldehy 5.7813-9
 HCOOH           3.1470-8
 H2O             8.0837-2
 H2O2            7.7098-8
 *N              4.4794-7
 NCO             6.0887-9
 *NH             1.3914-7
 NH2             7.6388-8
 NH3             1.1546-7
 NH2OH           1.765-11
 *NO             1.8513-3
 NO2             2.6490-7
 NO3             1.531-13
 *N2             7.0249-1
 NCN             2.287-14
 N2H2            8.727-12
 N2H4            1.521-16
 N2O             3.1187-7
 N2O3            6.743-15
 N3              3.861-12
 N3H             1.321-12
 *O              3.2508-4
 *OH             3.5723-3
 *O2             7.8284-4
 O3              4.562-11

  * THERMODYNAMIC PROPERTIES FITTED TO 20000.K









         THERMODYNAMIC EQUILIBRIUM COMBUSTION PROPERTIES AT ASSIGNED

                                     VOLUME

 CASE =                

             REACTANT                       MOLES         ENERGY      TEMP
                                                         KJ/KG-MOL      K
 FUEL        C6H6                         1.0000000     80537.766    300.000
 OXIDANT     O2                           7.5000000     -2439.995    300.000
 OXIDANT     N2                          28.2143000     -2440.472    300.000

 O/F=    9.42211  %FUEL=  9.594988  R,EQ.RATIO= 1.400000  PHI,EQ.RATIO= 1.400000

 THERMODYNAMIC PROPERTIES

 P, BAR            10.068
 T, K             2649.62
 RHO, KG/CU M    1.2724 0
 H, KJ/KG          813.72
 U, KJ/KG          22.459
 G, KJ/KG        -23685.5
 S, KJ/(KG)(K)     9.2463

 M, (1/n)          27.842
 (dLV/dLP)t      -1.00163
 (dLV/dLT)p        1.0404
 Cp, KJ/(KG)(K)    1.7553
 GAMMAs            1.2233
 SON VEL,M/SEC      983.8

 MOLE FRACTIONS

 *C              6.388-13
 *CH             2.484-13
 CH2             1.018-12
 CH3             5.001-12
 CH2OH           6.313-13
 CH3O            1.161-13
 CH4             2.828-12
 CH3OH           6.906-14
 *CN             5.210-10
 CNN             1.594-16
 *CO             1.2794-1
 *CO2            7.7261-2
 COOH            2.1273-7
 C2H             1.249-16
 C2H2,acetylene  1.226-14
 CH2CO,ketene    2.027-13
 O(CH)2O         1.132-15
 HO(CO)2OH       3.856-16
 OCCN            1.201-13
 C2N2            3.852-15
 C2O             5.653-13
 C3O2            2.926-15
 *H              2.0977-3
 HCN             7.2217-8
 HCO             3.0967-7
 HCCO            5.075-14
 HNC             9.0829-9
 HNCO            8.1668-8
 HNO             1.6809-7
 HNO2            9.8032-9
 HNO3            1.406-13
 HO2             1.9622-7
 *H2             2.0157-2
 HCHO,formaldehy 1.0584-8
 HCOOH           3.8486-8
 H2O             8.0280-2
 H2O2            3.6231-8
 *N              2.8247-7
 NCO             5.8574-9
 *NH             1.1990-7
 NH2             9.4125-8
 NH3             2.1661-7
 NH2OH           1.722-11
 *NO             8.8806-4
 NO2             7.0330-8
 NO3             2.045-14
 *N2             6.8879-1
 NCN             2.899-14
 N2H2            1.023-11
 N2H4            2.968-16
 N2O             1.4730-7
 N2O3            8.708-16
 N3              2.449-12
 N3H             1.166-12
 *O              1.3524-4
 *OH             2.2281-3
 *O2             2.1825-4
 O3              5.749-12

  * THERMODYNAMIC PROPERTIES FITTED TO 20000.K









         THERMODYNAMIC EQUILIBRIUM COMBUSTION PROPERTIES AT ASSIGNED

                                     VOLUME

 CASE =                

             REACTANT                       MOLES         ENERGY      TEMP
                                                         KJ/KG-MOL      K
 FUEL        C6H6                         1.0000000     80537.766    300.000
 OXIDANT     O2                           7.5000000     -2439.995    300.000
 OXIDANT     N2                          28.2143000     -2440.472    300.000

 O/F=    8.79397  %FUEL= 10.210367  R,EQ.RATIO= 1.500000  PHI,EQ.RATIO= 1.500000

 THERMODYNAMIC PROPERTIES

 P, BAR            9.9430
 T, K             2580.66
 RHO, KG/CU M    1.2724 0
 H, KJ/KG          810.79
 U, KJ/KG          29.324
 G, KJ/KG        -23192.5
 S, KJ/(KG)(K)     9.3012

 M, (1/n)          27.457
 (dLV/dLP)t      -1.00100
 (dLV/dLT)p        1.0245
 Cp, KJ/(KG)(K)    1.6391
 GAMMAs            1.2390
 SON VEL,M/SEC      984.0

 MOLE FRACTIONS

 *C              5.428-13
 *CH             2.898-13
 CH2             1.817-12
 CH3             1.421-11
 CH2OH           1.104-12
 CH3O            1.921-13
 CH4             1.230-11
 CH3OH           1.785-13
 *CN             6.148-10
 CNN             1.437-16
 *CO             1.5120-1
 *CO2            6.4142-2
 COOH            1.6815-7
 C2H             3.025-16
 C2H2,acetylene  5.294-14
 CH2CO,ketene    6.193-13
 O(CH)2O         2.098-15
 HO(CO)2OH       3.356-16
 CH3CO,acetyl    1.066-16
 OCCN            1.877-13
 C2N2            1.029-14
 C2O             8.139-13
 C3O2            6.722-15
 *H              1.9017-3
 HCN             1.4522-7
 HCO             3.5961-7
 HCCO            9.957-14
 HNC             1.6950-8
 HNCO            1.1229-7
 HNO             8.7453-8
 HNO2            3.1930-9
 HNO3            2.443-14
 HO2             5.8883-8
 *H2             2.8505-2
 HCHO,formaldehy 1.7454-8
 HCOOH           4.3440-8
 H2O             7.7571-2
 H2O2            1.5388-8
 *N              1.5688-7
 NCO             5.0003-9
 *NH             9.1479-8
 NH2             1.0458-7
 NH3             3.7991-7
 NH2OH           1.500-11
 *NO             3.9868-4
 NO2             1.6971-8
 NO3             2.346-15
 *N2             6.7489-1
 NCN             3.072-14
 N2H2            1.069-11
 N2H4            5.042-16
 N2O             6.4929-8
 N3              1.374-12
 N3H             9.206-13
 *O              5.0522-5
 *OH             1.2877-3
 *O2             5.6010-5
 O3              6.124-13

  * THERMODYNAMIC PROPERTIES FITTED TO 20000.K









         THERMODYNAMIC EQUILIBRIUM COMBUSTION PROPERTIES AT ASSIGNED

                                     VOLUME

 CASE =                

             REACTANT                       MOLES         ENERGY      TEMP
                                                         KJ/KG-MOL      K
 FUEL        C6H6                         1.0000000     80537.766    300.000
 OXIDANT     O2                           7.5000000     -2439.995    300.000
 OXIDANT     N2                          28.2143000     -2440.472    300.000

 O/F=    8.24434  %FUEL= 10.817425  R,EQ.RATIO= 1.600000  PHI,EQ.RATIO= 1.600000

 THERMODYNAMIC PROPERTIES

 P, BAR            9.7918
 T, K             2506.23
 RHO, KG/CU M    1.2723 0
 H, KJ/KG          805.68
 U, KJ/KG          36.097
 G, KJ/KG        -22631.1
 S, KJ/(KG)(K)     9.3514

 M, (1/n)          27.077
 (dLV/dLP)t      -1.00066
 (dLV/dLT)p        1.0159
 Cp, KJ/(KG)(K)    1.5776
 GAMMAs            1.2504
 SON VEL,M/SEC      981.0

 MOLE FRACTIONS

 *C              3.939-13
 *CH             2.874-13
 CH2             2.786-12
 CH3             3.525-11
 CH2OH           1.697-12
 CH3O            2.774-13
 CH4             4.728-11
 CH3OH           4.082-13
 *CN             6.495-10
 CNN             1.118-16
 *CO             1.7229-1
 *CO2            5.2694-2
 COOH            1.2432-7
 C2H             6.024-16
 C2H2,acetylene  1.942-13
 C2H2,vinylidene 1.546-16
 CH2CO,ketene    1.651-12
 O(CH)2O         3.409-15
 HO(CO)2OH       2.678-16
 CH3CN           1.185-16
 CH3CO,acetyl    3.083-16
 OCCN            2.572-13
 C2N2            2.414-14
 C2O             1.015-12
 C3O2            1.344-14
 *H              1.6207-3
 HCN             2.6833-7
 HCO             3.8234-7
 HCCO            1.681-13
 HNC             2.8755-8
 HNCO            1.4497-7
 HNO             4.2704-8
 HNO2            9.845-10
 HNO3            3.967-15
 HO2             1.6517-8
 *H2             3.8392-2
 HCHO,formaldehy 2.6366-8
 HCOOH           4.5926-8
 H2O             7.2937-2
 H2O2            6.1071-9
 *N              8.0362-8
 NCO             3.9365-9
 *NH             6.4067-8
 NH2             1.0708-7
 NH3             6.2343-7
 NH2OH           1.195-11
 *NO             1.7266-4
 NO2             3.9035-9
 NO3             2.491-16
 *N2             6.6115-1
 NCN             2.874-14
 N2H2            1.022-11
 N2H4            7.606-16
 N2O             2.7579-8
 N3              7.133-13
 N3H             6.718-13
 *O              1.7730-5
 *OH             7.0754-4
 *O2             1.3805-5
 O3              5.981-14

  * THERMODYNAMIC PROPERTIES FITTED TO 20000.K









         THERMODYNAMIC EQUILIBRIUM COMBUSTION PROPERTIES AT ASSIGNED

                                     VOLUME

 CASE =                

             REACTANT                       MOLES         ENERGY      TEMP
                                                         KJ/KG-MOL      K
 FUEL        C6H6                         1.0000000     80537.766    300.000
 OXIDANT     O2                           7.5000000     -2439.995    300.000
 OXIDANT     N2                          28.2143000     -2440.472    300.000

 O/F=    7.75938  %FUEL= 11.416329  R,EQ.RATIO= 1.700000  PHI,EQ.RATIO= 1.700000

 THERMODYNAMIC PROPERTIES

 P, BAR            9.6258
 T, K             2430.04
 RHO, KG/CU M    1.2724 0
 H, KJ/KG          799.31
 U, KJ/KG          42.778
 G, KJ/KG        -22036.4
 S, KJ/(KG)(K)     9.3972

 M, (1/n)          26.707
 (dLV/dLP)t      -1.00045
 (dLV/dLT)p        1.0109
 Cp, KJ/(KG)(K)    1.5431
 GAMMAs            1.2590
 SON VEL,M/SEC      976.0

 MOLE FRACTIONS

 *C              2.552-13
 *CH             2.527-13
 CH2             3.795-12
 CH3             7.826-11
 CH2OH           2.349-12
 CH3O            3.590-13
 CH4             1.634-10
 CH3OH           8.407-13
 *CN             6.335-10
 *CO             1.9119-1
 *CO2            4.3004-2
 COOH            8.7369-8
 C2H             1.037-15
 C2H2,acetylene  6.272-13
 C2H2,vinylidene 3.833-16
 CH2CO,ketene    3.953-12
 O(CH)2O         5.001-15
 HO(CO)2OH       1.997-16
 CH3CN           5.414-16
 CH3CO,acetyl    7.795-16
 C2H4            2.852-16
 OCCN            3.206-13
 C2N2            5.154-14
 C2O             1.140-12
 C3O2            2.433-14
 *H              1.3163-3
 HCN             4.6424-7
 HCO             3.8004-7
 HCCO            2.538-13
 HNC             4.5333-8
 HNCO            1.7816-7
 HNO             1.9892-8
 HNO2            2.916-10
 HNO3            6.141-16
 HO2             4.4100-9
 *H2             4.9504-2
 HCHO,formaldehy 3.7090-8
 HCOOH           4.6005-8
 H2O             6.6747-2
 H2O2            2.2962-9
 *N              3.8894-8
 NCO             2.9265-9
 *NH             4.2059-8
 NH2             1.0259-7
 NH3             9.6335-7
 NH2OH           8.837-12
 *NO             7.3010-5
 NO2             8.705-10
 *N2             6.4778-1
 NCN             2.460-14
 N2H2            9.115-12
 N2H4            1.037-15
 N2O             1.1436-8
 N3              3.509-13
 N3H             4.621-13
 *O              5.9621-6
 *OH             3.7391-4
 *O2             3.3160-6
 O3              5.523-15

  * THERMODYNAMIC PROPERTIES FITTED TO 20000.K









         THERMODYNAMIC EQUILIBRIUM COMBUSTION PROPERTIES AT ASSIGNED

                                     VOLUME

 CASE =                

             REACTANT                       MOLES         ENERGY      TEMP
                                                         KJ/KG-MOL      K
 FUEL        C6H6                         1.0000000     80537.766    300.000
 OXIDANT     O2                           7.5000000     -2439.995    300.000
 OXIDANT     N2                          28.2143000     -2440.472    300.000

 O/F=    7.32831  %FUEL= 12.007243  R,EQ.RATIO= 1.800000  PHI,EQ.RATIO= 1.800000

 THERMODYNAMIC PROPERTIES

 P, BAR            9.4506
 T, K             2353.79
 RHO, KG/CU M    1.2724 0
 H, KJ/KG          792.14
 U, KJ/KG          49.371
 G, KJ/KG        -21425.2
 S, KJ/(KG)(K)     9.4390

 M, (1/n)          26.348
 (dLV/dLP)t      -1.00032
 (dLV/dLT)p        1.0077
 Cp, KJ/(KG)(K)    1.5223
 GAMMAs            1.2661
 SON VEL,M/SEC      969.8

 MOLE FRACTIONS

 *C              1.517-13
 *CH             2.023-13
 CH2             4.716-12
 CH3             1.593-10
 CH2OH           2.985-12
 CH3O            4.250-13
 CH4             5.200-10
 CH3OH           1.589-12
 *CN             5.827-10
 *CO             2.0814-1
 *CO2            3.4872-2
 COOH            5.8796-8
 C2H             1.605-15
 C2H2,acetylene  1.847-12
 C2H2,vinylidene 8.506-16
 CH2CO,ketene    8.737-12
 O(CH)2O         6.776-15
 HO(CO)2OH       1.405-16
 C2H3,vinyl      1.811-16
 CH3CN           2.248-15
 CH3CO,acetyl    1.778-15
 C2H4            1.377-15
 CH3CHO,ethanal  2.365-16
 OCCN            3.733-13
 C2N2            1.033-13
 C2O             1.189-12
 C3O2            4.109-14
 *H              1.0268-3
 HCN             7.6560-7
 HCO             3.5813-7
 HCCO            3.524-13
 HNC             6.7701-8
 HNCO            2.1076-7
 HNO             8.8761-9
 HNO2            8.291-11
 HO2             1.1212-9
 *H2             6.1486-2
 HCHO,formaldehy 4.9273-8
 HCOOH           4.3988-8
 H2O             5.9409-2
 H2O2            8.183-10
 *N              1.7969-8
 NCO             2.0819-9
 *NH             2.6164-8
 NH2             9.2940-8
 NH3             1.4138-6
 NH2OH           6.114-12
 *NO             3.0157-5
 NO2             1.879-10
 *N2             6.3484-1
 NCN             1.970-14
 N2H2            7.666-12
 N2H4            1.299-15
 N2O             4.6331-9
 N3              1.653-13
 N3H             3.028-13
 *O              1.9282-6
 *OH             1.9046-4
 *O2             7.7377-7
 O3              4.818-16

  * THERMODYNAMIC PROPERTIES FITTED TO 20000.K









         THERMODYNAMIC EQUILIBRIUM COMBUSTION PROPERTIES AT ASSIGNED

                                     VOLUME

 CASE =                

             REACTANT                       MOLES         ENERGY      TEMP
                                                         KJ/KG-MOL      K
 FUEL        C6H6                         1.0000000     80537.766    300.000
 OXIDANT     O2                           7.5000000     -2439.995    300.000
 OXIDANT     N2                          28.2143000     -2440.472    300.000

 O/F=    6.94261  %FUEL= 12.590326  R,EQ.RATIO= 1.900000  PHI,EQ.RATIO= 1.900000

 THERMODYNAMIC PROPERTIES

 P, BAR            9.2687
 T, K             2278.17
 RHO, KG/CU M    1.2724 0
 H, KJ/KG          784.35
 U, KJ/KG          55.876
 G, KJ/KG        -20805.4
 S, KJ/(KG)(K)     9.4768

 M, (1/n)          26.002
 (dLV/dLP)t      -1.00022
 (dLV/dLT)p        1.0055
 Cp, KJ/(KG)(K)    1.5086
 GAMMAs            1.2724
 SON VEL,M/SEC      962.7

 MOLE FRACTIONS

 *C              8.416-14
 *CH             1.505-13
 CH2             5.461-12
 CH3             3.044-10
 CH2OH           3.534-12
 CH3O            4.674-13
 CH4             1.5608-9
 CH3OH           2.803-12
 *CN             5.134-10
 *CO             2.2346-1
 *CO2            2.8006-2
 COOH            3.7922-8
 C2H             2.306-15
 C2H2,acetylene  5.131-12
 C2H2,vinylidene 1.750-15
 CH2CO,ketene    1.828-11
 O(CH)2O         8.629-15
 C2H3,vinyl      4.923-16
 CH3CN           8.791-15
 CH3CO,acetyl    3.767-15
 C2H4            6.175-15
 CH3CHO,ethanal  7.176-16
 OCCN            4.144-13
 C2N2            1.998-13
 C2O             1.173-12
 C3O2            6.637-14
 *H              7.7272-4
 HCN             1.2241-6
 HCO             3.2292-7
 HCCO            4.608-13
 HNC             9.7450-8
 HNCO            2.4204-7
 HNO             3.7822-9
 HNO2            2.237-11
 HO2             2.685-10
 *H2             7.3996-2
 HCHO,formaldehy 6.2531-8
 HCOOH           4.0271-8
 H2O             5.1300-2
 H2O2            2.740-10
 *N              7.9479-9
 NCO             1.4273-9
 *NH             1.5503-8
 NH2             8.0188-8
 NH3             1.9882-6
 NH2OH           3.966-12
 *NO             1.2090-5
 NO2             3.871-11
 *N2             6.2236-1
 NCN             1.501-14
 N2H2            6.130-12
 N2H4            1.513-15
 N2O             1.8228-9
 N3              7.476-14
 N3H             1.901-13
 *O              5.9646-7
 *OH             9.3155-5
 *O2             1.7296-7

  * THERMODYNAMIC PROPERTIES FITTED TO 20000.K









         THERMODYNAMIC EQUILIBRIUM COMBUSTION PROPERTIES AT ASSIGNED

                                     VOLUME

 CASE =                

             REACTANT                       MOLES         ENERGY      TEMP
                                                         KJ/KG-MOL      K
 FUEL        C6H6                         1.0000000     80537.766    300.000
 OXIDANT     O2                           7.5000000     -2439.995    300.000
 OXIDANT     N2                          28.2143000     -2440.472    300.000

 O/F=    6.59548  %FUEL= 13.165732  R,EQ.RATIO= 2.000000  PHI,EQ.RATIO= 2.000000

 THERMODYNAMIC PROPERTIES

 P, BAR            9.0813
 T, K             2203.44
 RHO, KG/CU M    1.2724 0
 H, KJ/KG          776.04
 U, KJ/KG          62.296
 G, KJ/KG        -20180.4
 S, KJ/(KG)(K)     9.5108

 M, (1/n)          25.668
 (dLV/dLP)t      -1.00016
 (dLV/dLT)p        1.0039
 Cp, KJ/(KG)(K)    1.4990
 GAMMAs            1.2781
 SON VEL,M/SEC      955.1

 MOLE FRACTIONS

 *C              4.417-14
 *CH             1.057-13
 CH2             6.010-12
 CH3             5.581-10
 CH2OH           3.945-12
 CH3O            4.831-13
 CH4             4.5359-9
 CH3OH           4.685-12
 *CN             4.394-10
 *CO             2.3746-1
 *CO2            2.2115-2
 COOH            2.3330-8
 C2H             3.175-15
 C2H2,acetylene  1.391-11
 C2H2,vinylidene 3.454-15
 CH2CO,ketene    3.709-11
 O(CH)2O         1.046-14
 C2H3,vinyl      1.281-15
 CH3CN           3.365-14
 CH3CO,acetyl    7.606-15
 C2H4            2.679-14
 CH3CHO,ethanal  2.079-15
 CH3COOH         1.785-16
 OCCN            4.468-13
 C2N2            3.842-13
 C2O             1.116-12
 C3O2            1.048-13
 *H              5.6221-4
 HCN             1.9309-6
 HCO             2.8033-7
 HCCO            5.794-13
 HNC             1.3756-7
 HNCO            2.7161-7
 HNO             1.5255-9
 HNO2            5.616-12
 HO2             5.935-11
 *H2             8.6749-2
 HCHO,formaldehy 7.6502-8
 HCOOH           3.5241-8
 H2O             4.2734-2
 H2O2            8.474-11
 *N              3.3627-9
 NCO             9.461-10
 *NH             8.7682-9
 NH2             6.6226-8
 NH3             2.7010-6
 NH2OH           2.404-12
 *NO             4.6505-6
 NO2             7.441-12
 *N2             6.1032-1
 NCN             1.104-14
 N2H2            4.683-12
 N2H4            1.657-15
 N2O             6.885-10
 N3              3.245-14
 N3H             1.145-13
 *O              1.7440-7
 *OH             4.3365-5
 *O2             3.6199-8

  * THERMODYNAMIC PROPERTIES FITTED TO 20000.K



