
 *******************************************************************************

         NASA-GLENN CHEMICAL EQUILIBRIUM PROGRAM CEA2, MAY 21, 2004
                   BY  BONNIE MCBRIDE AND SANFORD GORDON
      REFS: NASA RP-1311, PART I, 1994 AND NASA RP-1311, PART II, 1996

 *******************************************************************************



 problem    phi,eq.ratio=3.7,3.8,3.9,4,
       uv   rho,kg/m**3=1.27235,  t,k=3800
 react
   fuel=C6H6 moles=1 t,k=300
   oxid=O2 moles=7.5 t,k=300
   oxid=N2 moles=28.2143 t,k=300
 output
      trace=1e-16 siunits short
 end




         THERMODYNAMIC EQUILIBRIUM COMBUSTION PROPERTIES AT ASSIGNED

                                     VOLUME

 CASE =                

             REACTANT                       MOLES         ENERGY      TEMP
                                                         KJ/KG-MOL      K
 FUEL        C6H6                         1.0000000     80537.766    300.000
 OXIDANT     O2                           7.5000000     -2439.995    300.000
 OXIDANT     N2                          28.2143000     -2440.472    300.000

 O/F=    3.56512  %FUEL= 21.905220  R,EQ.RATIO= 3.700000  PHI,EQ.RATIO= 3.700000

 THERMODYNAMIC PROPERTIES

 P, BAR            7.3499
 T, K             1688.80
 RHO, KG/CU M    1.2724 0
 H, KJ/KG          737.46
 U, KJ/KG          159.80
 G, KJ/KG        -15374.0
 S, KJ/(KG)(K)     9.5401

 M, (1/n)          24.308
 MW, MOL WT        21.487
 (dLV/dLP)t      -1.00067
 (dLV/dLT)p        1.0055
 Cp, KJ/(KG)(K)    1.6315
 GAMMAs            1.2679
 SON VEL,M/SEC      855.8

 MOLE FRACTIONS

 *C              1.293-15
 *CH             3.367-14
 CH2             8.874-11
 CH3             6.9046-7
 CH2OH           2.464-12
 CH3O            1.540-13
 CH4             3.1039-4
 CH3OH           9.252-11
 *CN             1.1999-9
 *CO             2.4395-1
 *CO2            7.5558-5
 COOH            5.676-12
 C2H             6.857-12
 C2H2,acetylene  1.1902-5
 C2H2,vinylidene 1.498-10
 CH2CO,ketene    1.0899-7
 O(CH)2O         1.334-14
 C2H3,vinyl      5.351-10
 CH3CN           5.2190-7
 CH3CO,acetyl    1.588-11
 C2H4            9.5684-7
 C2H4O,ethylen-o 1.904-15
 CH3CHO,ethanal  8.992-11
 CH3COOH         1.740-14
 C2H5            7.083-11
 C2H6            3.4897-9
 C2H5OH          7.848-15
 CNC             1.138-15
 OCCN            6.946-12
 C2N2            2.6150-8
 C2O             5.455-12
 *C3             3.661-16
 C3H3,1-propynl  4.246-14
 C3H3,2-propynl  7.569-10
 C3H4,allene     7.862-10
 C3H4,propyne    2.0988-9
 C3H4,cyclo-     1.326-12
 C3H5,allyl      1.154-11
 C3H6,propylene  1.219-10
 C3H6,cyclo-     2.926-13
 C3H6O,acetone   5.416-15
 C3H6O,propanal  2.354-15
 C3H7,n-propyl   2.083-15
 C3H7,i-propyl   1.945-15
 C3H8            1.060-13
 CNCOCN          3.338-16
 C3O2            3.856-11
 C4H2,butadiyne  3.066-10
 C4H4,1,3-cyclo- 8.063-16
 C4H6,butadiene  1.252-12
 C4H6,1butyne    6.900-14
 C4H6,2butyne    7.005-14
 C4H6,cyclo-     1.836-15
 C4H8,1-butene   3.441-15
 C4H8,cis2-buten 1.544-15
 C4H8,tr2-butene 1.734-15
 C4H8,isobutene  2.012-15
 C4N2            5.995-13
 C5H6,1,3cyclo-  2.508-14
 C6H2            8.406-15
 C6H5,phenyl     1.362-16
 C6H6            2.091-13
 *H              1.9493-5
 HCN             1.1351-3
 HCO             3.2063-8
 HCCN            2.085-16
 HCCO            2.727-11
 HNC             2.8684-5
 HNCO            3.4442-7
 HNO             1.150-14
 *H2             1.7933-1
 HCHO,formaldehy 1.5617-7
 HCOOH           1.695-10
 H2O             1.8724-4
 *N              1.043-12
 NCO             1.251-11
 *NH             2.879-11
 NH2             5.3199-9
 NH3             1.6089-5
 NH2OH           4.244-16
 *NO             2.989-11
 *N2             4.5891-1
 NCN             7.555-15
 N2H2            1.952-13
 N2H4            9.995-16
 N2O             3.862-15
 N3H             6.957-16
 *O              8.884-14
 *OH             1.1808-9
 C(gr)           1.1602-1

  * THERMODYNAMIC PROPERTIES FITTED TO 20000.K









         THERMODYNAMIC EQUILIBRIUM COMBUSTION PROPERTIES AT ASSIGNED

                                     VOLUME

 CASE =                

             REACTANT                       MOLES         ENERGY      TEMP
                                                         KJ/KG-MOL      K
 FUEL        C6H6                         1.0000000     80537.766    300.000
 OXIDANT     O2                           7.5000000     -2439.995    300.000
 OXIDANT     N2                          28.2143000     -2440.472    300.000

 O/F=    3.47130  %FUEL= 22.364846  R,EQ.RATIO= 3.800000  PHI,EQ.RATIO= 3.800000

 THERMODYNAMIC PROPERTIES

 P, BAR            7.3031
 T, K             1678.79
 RHO, KG/CU M    1.2724 0
 H, KJ/KG          738.91
 U, KJ/KG          164.93
 G, KJ/KG        -15265.9
 S, KJ/(KG)(K)     9.5335

 M, (1/n)          24.318
 MW, MOL WT        21.302
 (dLV/dLP)t      -1.00072
 (dLV/dLT)p        1.0059
 Cp, KJ/(KG)(K)    1.6391
 GAMMAs            1.2664
 SON VEL,M/SEC      852.6

 MOLE FRACTIONS

 *C              9.506-16
 *CH             2.629-14
 CH2             7.636-11
 CH3             6.6489-7
 CH2OH           2.393-12
 CH3O            1.472-13
 CH4             3.3123-4
 CH3OH           9.811-11
 *CN             9.893-10
 *CO             2.4041-1
 *CO2            7.8847-5
 COOH            5.533-12
 C2H             5.426-12
 C2H2,acetylene  1.0964-5
 C2H2,vinylidene 1.278-10
 CH2CO,ketene    1.0634-7
 O(CH)2O         1.309-14
 C2H3,vinyl      4.835-10
 CH3CN           5.1692-7
 CH3CO,acetyl    1.535-11
 C2H4            9.6836-7
 C2H4O,ethylen-o 1.893-15
 CH3CHO,ethanal  9.387-11
 CH3COOH         1.906-14
 C2H5            7.030-11
 C2H6            3.8069-9
 C2H5OH          8.573-15
 CNC             8.434-16
 OCCN            5.929-12
 C2N2            2.2570-8
 C2O             4.526-12
 *C3             2.572-16
 C3H3,1-propynl  3.604-14
 C3H3,2-propynl  6.732-10
 C3H4,allene     7.492-10
 C3H4,propyne    2.0060-9
 C3H4,cyclo-     1.219-12
 C3H5,allyl      1.120-11
 C3H6,propylene  1.272-10
 C3H6,cyclo-     3.008-13
 C3H6O,acetone   5.879-15
 C3H6O,propanal  2.515-15
 C3H7,n-propyl   2.117-15
 C3H7,i-propyl   1.987-15
 C3H8            1.186-13
 CNCOCN          2.780-16
 C3O2            3.539-11
 C4H2,butadiyne  2.567-10
 C4H4,1,3-cyclo- 7.078-16
 C4H6,butadiene  1.251-12
 C4H6,1butyne    6.759-14
 C4H6,2butyne    6.932-14
 C4H6,cyclo-     1.806-15
 C4H8,1-butene   3.681-15
 C4H8,cis2-buten 1.659-15
 C4H8,tr2-butene 1.863-15
 C4H8,isobutene  2.168-15
 C4N2            4.710-13
 C5H6,1,3cyclo-  2.488-14
 C6H2            6.403-15
 C6H5,phenyl     1.231-16
 C6H6            2.124-13
 *H              1.7795-5
 HCN             1.0730-3
 HCO             2.9857-8
 HCCN            1.606-16
 HCCO            2.396-11
 HNC             2.6405-5
 HNCO            3.4080-7
 HNO             1.035-14
 *H2             1.8152-1
 HCHO,formaldehy 1.5646-7
 HCOOH           1.783-10
 H2O             1.9826-4
 *N              8.436-13
 NCO             1.102-11
 *NH             2.471-11
 NH2             4.9511-9
 NH3             1.6703-5
 NH2OH           4.138-16
 *NO             2.681-11
 *N2             4.5230-1
 NCN             6.009-15
 N2H2            1.786-13
 N2H4            9.776-16
 N2O             3.450-15
 N3H             6.056-16
 *O              7.478-14
 *OH             1.0991-9
 C(gr)           1.2402-1

  * THERMODYNAMIC PROPERTIES FITTED TO 20000.K









         THERMODYNAMIC EQUILIBRIUM COMBUSTION PROPERTIES AT ASSIGNED

                                     VOLUME

 CASE =                

             REACTANT                       MOLES         ENERGY      TEMP
                                                         KJ/KG-MOL      K
 FUEL        C6H6                         1.0000000     80537.766    300.000
 OXIDANT     O2                           7.5000000     -2439.995    300.000
 OXIDANT     N2                          28.2143000     -2440.472    300.000

 O/F=    3.38230  %FUEL= 22.819093  R,EQ.RATIO= 3.900000  PHI,EQ.RATIO= 3.900000

 THERMODYNAMIC PROPERTIES

 P, BAR            7.2574
 T, K             1669.03
 RHO, KG/CU M    1.2724 0
 H, KJ/KG          740.39
 U, KJ/KG          169.99
 G, KJ/KG        -15160.3
 S, KJ/(KG)(K)     9.5269

 M, (1/n)          24.329
 MW, MOL WT        21.123
 (dLV/dLP)t      -1.00076
 (dLV/dLT)p        1.0063
 Cp, KJ/(KG)(K)    1.6468
 GAMMAs            1.2648
 SON VEL,M/SEC      849.4

 MOLE FRACTIONS

 *C              7.019-16
 *CH             2.059-14
 CH2             6.582-11
 CH3             6.4025-7
 CH2OH           2.324-12
 CH3O            1.406-13
 CH4             3.5290-4
 CH3OH           1.039-10
 *CN             8.177-10
 *CO             2.3696-1
 *CO2            8.2236-5
 COOH            5.395-12
 C2H             4.306-12
 C2H2,acetylene  1.0107-5
 C2H2,vinylidene 1.092-10
 CH2CO,ketene    1.0376-7
 O(CH)2O         1.284-14
 C2H3,vinyl      4.373-10
 CH3CN           5.1178-7
 CH3CO,acetyl    1.485-11
 C2H4            9.7917-7
 C2H4O,ethylen-o 1.881-15
 CH3CHO,ethanal  9.788-11
 CH3COOH         2.083-14
 C2H5            6.972-11
 C2H6            4.1436-9
 C2H5OH          9.345-15
 CNC             6.276-16
 OCCN            5.072-12
 C2N2            1.9519-8
 C2O             3.765-12
 *C3             1.815-16
 C3H3,1-propynl  3.065-14
 C3H3,2-propynl  5.993-10
 C3H4,allene     7.139-10
 C3H4,propyne    1.9171-9
 C3H4,cyclo-     1.120-12
 C3H5,allyl      1.087-11
 C3H6,propylene  1.325-10
 C3H6,cyclo-     3.087-13
 C3H6O,acetone   6.368-15
 C3H6O,propanal  2.682-15
 C3H7,n-propyl   2.148-15
 C3H7,i-propyl   2.026-15
 C3H8            1.322-13
 CNCOCN          2.321-16
 C3O2            3.251-11
 C4H2,butadiyne  2.154-10
 C4H4,1,3-cyclo- 6.220-16
 C4H6,butadiene  1.249-12
 C4H6,1butyne    6.614-14
 C4H6,2butyne    6.853-14
 C4H6,cyclo-     1.775-15
 C4H8,1-butene   3.928-15
 C4H8,cis2-buten 1.779-15
 C4H8,tr2-butene 1.998-15
 C4H8,isobutene  2.330-15
 C4N2            3.713-13
 C5H6,1,3cyclo-  2.467-14
 C6H2            4.893-15
 C6H5,phenyl     1.113-16
 C6H6            2.154-13
 *H              1.6263-5
 HCN             1.0149-3
 HCO             2.7825-8
 HCCN            1.241-16
 HCCO            2.108-11
 HNC             2.4330-5
 HNCO            3.3721-7
 HNO             9.334-15
 *H2             1.8364-1
 HCHO,formaldehy 1.5670-7
 HCOOH           1.874-10
 H2O             2.0968-4
 *N              6.844-13
 NCO             9.732-12
 *NH             2.125-11
 NH2             4.6108-9
 NH3             1.7323-5
 NH2OH           4.033-16
 *NO             2.408-11
 *N2             4.4589-1
 NCN             4.795-15
 N2H2            1.637-13
 N2H4            9.558-16
 N2O             3.087-15
 N3H             5.281-16
 *O              6.310-14
 *OH             1.0238-9
 C(gr)           1.3178-1

  * THERMODYNAMIC PROPERTIES FITTED TO 20000.K









         THERMODYNAMIC EQUILIBRIUM COMBUSTION PROPERTIES AT ASSIGNED

                                     VOLUME

 CASE =                

             REACTANT                       MOLES         ENERGY      TEMP
                                                         KJ/KG-MOL      K
 FUEL        C6H6                         1.0000000     80537.766    300.000
 OXIDANT     O2                           7.5000000     -2439.995    300.000
 OXIDANT     N2                          28.2143000     -2440.472    300.000

 O/F=    3.29774  %FUEL= 23.268055  R,EQ.RATIO= 4.000000  PHI,EQ.RATIO= 4.000000

 THERMODYNAMIC PROPERTIES

 P, BAR            7.2129
 T, K             1659.52
 RHO, KG/CU M    1.2724 0
 H, KJ/KG          741.90
 U, KJ/KG          175.00
 G, KJ/KG        -15057.1
 S, KJ/(KG)(K)     9.5202

 M, (1/n)          24.340
 MW, MOL WT        20.948
 (dLV/dLP)t      -1.00081
 (dLV/dLT)p        1.0067
 Cp, KJ/(KG)(K)    1.6545
 GAMMAs            1.2633
 SON VEL,M/SEC      846.3

 MOLE FRACTIONS

 *C              5.203-16
 *CH             1.618-14
 CH2             5.683-11
 CH3             6.1653-7
 CH2OH           2.257-12
 CH3O            1.344-13
 CH4             3.7543-4
 CH3OH           1.099-10
 *CN             6.777-10
 *CO             2.3361-1
 *CO2            8.5726-5
 COOH            5.261-12
 C2H             3.427-12
 C2H2,acetylene  9.3243-6
 C2H2,vinylidene 9.353-11
 CH2CO,ketene    1.0124-7
 O(CH)2O         1.259-14
 C2H3,vinyl      3.958-10
 CH3CN           5.0651-7
 CH3CO,acetyl    1.436-11
 C2H4            9.8928-7
 C2H4O,ethylen-o 1.868-15
 CH3CHO,ethanal  1.019-10
 CH3COOH         2.272-14
 C2H5            6.909-11
 C2H6            4.5005-9
 C2H5OH          1.016-14
 CNC             4.689-16
 OCCN            4.348-12
 C2N2            1.6914-8
 C2O             3.139-12
 *C3             1.287-16
 C3H3,1-propynl  2.610-14
 C3H3,2-propynl  5.342-10
 C3H4,allene     6.803-10
 C3H4,propyne    1.8320-9
 C3H4,cyclo-     1.031-12
 C3H5,allyl      1.054-11
 C3H6,propylene  1.378-10
 C3H6,cyclo-     3.165-13
 C3H6O,acetone   6.884-15
 C3H6O,propanal  2.855-15
 C3H7,n-propyl   2.177-15
 C3H7,i-propyl   2.064-15
 C3H8            1.470-13
 CNCOCN          1.943-16
 C3O2            2.991-11
 C4H2,butadiyne  1.811-10
 C4H4,1,3-cyclo- 5.472-16
 C4H6,butadiene  1.246-12
 C4H6,1butyne    6.469-14
 C4H6,2butyne    6.770-14
 C4H6,cyclo-     1.743-15
 C4H8,1-butene   4.182-15
 C4H8,cis2-buten 1.903-15
 C4H8,tr2-butene 2.137-15
 C4H8,isobutene  2.498-15
 C4N2            2.936-13
 C5H6,1,3cyclo-  2.444-14
 C6H2            3.752-15
 C6H5,phenyl     1.006-16
 C6H6            2.182-13
 *H              1.4879-5
 HCN             9.6055-4
 HCO             2.5952-8
 HCCO            1.857-11
 HNC             2.2439-5
 HNCO            3.3366-7
 HNO             8.426-15
 *H2             1.8569-1
 HCHO,formaldehy 1.5689-7
 HCOOH           1.968-10
 H2O             2.2153-4
 *N              5.569-13
 NCO             8.607-12
 *NH             1.831-11
 NH2             4.2966-9
 NH3             1.7948-5
 NH2OH           3.931-16
 *NO             2.166-11
 *N2             4.3965-1
 NCN             3.837-15
 N2H2            1.501-13
 N2H4            9.341-16
 N2O             2.766-15
 N3H             4.613-16
 *O              5.337-14
 *OH             9.545-10
 C(gr)           1.3933-1

  * THERMODYNAMIC PROPERTIES FITTED TO 20000.K



