
 *******************************************************************************

         NASA-GLENN CHEMICAL EQUILIBRIUM PROGRAM CEA2, MAY 21, 2004
                   BY  BONNIE MCBRIDE AND SANFORD GORDON
      REFS: NASA RP-1311, PART I, 1994 AND NASA RP-1311, PART II, 1996

 *******************************************************************************



 problem    phi,eq.ratio=3.7,3.8,3.9,4,
       uv   rho,kg/m**3=1.2804,  t,k=3800
 react
   fuel=C8H18,isooctane moles=1 t,k=300
   oxid=O2 moles=12.5 t,k=300
   oxid=N2 moles=47.0238 t,k=300
 output
      trace=1e-16 siunits short
 end




         THERMODYNAMIC EQUILIBRIUM COMBUSTION PROPERTIES AT ASSIGNED

                                     VOLUME

 CASE =                

             REACTANT                       MOLES         ENERGY      TEMP
                                                         KJ/KG-MOL      K
 FUEL        C8H18,isooctane              1.0000000   -226154.811    300.000
 OXIDANT     O2                          12.5000000     -2439.995    300.000
 OXIDANT     N2                          47.0238000     -2440.472    300.000

 O/F=    4.06317  %FUEL= 19.750464  R,EQ.RATIO= 3.700000  PHI,EQ.RATIO= 3.700000

 THERMODYNAMIC PROPERTIES

 P, BAR            6.2976
 T, K             1225.96
 RHO, KG/CU M    1.2804 0
 H, KJ/KG          32.935
 U, KJ/KG         -458.91
 G, KJ/KG        -12621.6
 S, KJ/(KG)(K)    10.3222

 M, (1/n)          20.725
 MW, MOL WT        19.745
 (dLV/dLP)t      -1.01769
 (dLV/dLT)p        1.2176
 Cp, KJ/(KG)(K)    2.8212
 GAMMAs            1.2394
 SON VEL,M/SEC      780.7

 MOLE FRACTIONS

 CH2             4.683-15
 CH3             3.1981-8
 CH2OH           3.061-13
 CH3O            7.129-15
 CH4             7.0536-3
 CH3OH           2.1546-9
 *CN             1.068-14
 *CO             2.1473-1
 *CO2            4.0310-3
 COOH            2.850-12
 C2H2,acetylene  4.7208-8
 C2H2,vinylidene 4.476-15
 CH2CO,ketene    2.5797-8
 O(CH)2O         7.082-15
 C2H3,vinyl      4.371-13
 CH3CN           1.8530-7
 CH3CO,acetyl    1.543-12
 C2H4            7.3445-7
 C2H4O,ethylen-o 7.616-16
 CH3CHO,ethanal  7.824-10
 CH3COOH         5.125-12
 C2H5            1.119-11
 C2H6            1.5703-7
 C2H5OH          6.116-13
 CH3OCH3         7.315-16
 OCCN            8.720-16
 C2N2            5.528-12
 C3H3,2-propynl  2.265-13
 C3H4,allene     1.336-11
 C3H4,propyne    4.285-11
 C3H4,cyclo-     2.285-15
 C3H5,allyl      4.612-13
 C3H6,propylene  3.252-10
 C3H6,cyclo-     3.095-13
 C3H6O,acetone   2.798-13
 C3H6O,propanal  4.503-14
 C3H7,n-propyl   7.471-16
 C3H7,i-propyl   9.597-16
 C3H8            1.159-11
 C3O2            5.956-13
 C4H2,butadiyne  2.873-15
 C4H6,butadiene  2.302-13
 C4H6,1butyne    3.359-15
 C4H6,2butyne    6.479-15
 C4H6,cyclo-     1.195-16
 C4H8,1-butene   2.250-14
 C4H8,cis2-buten 1.352-14
 C4H8,tr2-butene 1.532-14
 C4H8,isobutene  2.062-14
 C4H10,n-butane  8.511-16
 C4H10,isobutane 3.735-16
 C5H6,1,3cyclo-  2.852-15
 C6H6            1.013-13
 *H              6.5896-8
 HCN             4.1992-5
 HCO             5.551-10
 HCCO            1.174-14
 HNC             1.9704-7
 HNCO            3.5940-7
 *H2             2.8508-1
 HCHO,formaldehy 1.9874-7
 HCOOH           7.8687-9
 H2O             7.8826-3
 NCO             1.231-14
 *NH             2.399-15
 NH2             5.228-11
 NH3             1.1293-4
 *NO             8.899-14
 *N2             4.3381-1
 N2H2            8.999-16
 N2H4            1.494-16
 *OH             2.039-11
 C(gr)           4.7260-2

  * THERMODYNAMIC PROPERTIES FITTED TO 20000.K









         THERMODYNAMIC EQUILIBRIUM COMBUSTION PROPERTIES AT ASSIGNED

                                     VOLUME

 CASE =                

             REACTANT                       MOLES         ENERGY      TEMP
                                                         KJ/KG-MOL      K
 FUEL        C8H18,isooctane              1.0000000   -226154.811    300.000
 OXIDANT     O2                          12.5000000     -2439.995    300.000
 OXIDANT     N2                          47.0238000     -2440.472    300.000

 O/F=    3.95625  %FUEL= 20.176559  R,EQ.RATIO= 3.800000  PHI,EQ.RATIO= 3.800000

 THERMODYNAMIC PROPERTIES

 P, BAR            6.2565
 T, K             1216.44
 RHO, KG/CU M    1.2804 0
 H, KJ/KG          21.654
 U, KJ/KG         -466.99
 G, KJ/KG        -12540.6
 S, KJ/(KG)(K)    10.3270

 M, (1/n)          20.699
 MW, MOL WT        19.572
 (dLV/dLP)t      -1.01922
 (dLV/dLT)p        1.2383
 Cp, KJ/(KG)(K)    2.9518
 GAMMAs            1.2337
 SON VEL,M/SEC      776.4

 MOLE FRACTIONS

 CH2             3.510-15
 CH3             2.9096-8
 CH2OH           2.837-13
 CH3O            6.430-15
 CH4             7.6682-3
 CH3OH           2.3199-9
 *CN             7.579-15
 *CO             2.1003-1
 *CO2            4.3927-3
 COOH            2.720-12
 C2H2,acetylene  4.0023-8
 C2H2,vinylidene 3.298-15
 CH2CO,ketene    2.4337-8
 O(CH)2O         6.777-15
 C2H3,vinyl      3.543-13
 CH3CN           1.7832-7
 CH3CO,acetyl    1.421-12
 C2H4            7.2442-7
 C2H4O,ethylen-o 7.307-16
 CH3CHO,ethanal  8.192-10
 CH3COOH         5.885-12
 C2H5            1.055-11
 C2H6            1.7421-7
 C2H5OH          6.828-13
 CH3OCH3         7.863-16
 OCCN            6.610-16
 C2N2            4.288-12
 C3H3,2-propynl  1.785-13
 C3H4,allene     1.182-11
 C3H4,propyne    3.810-11
 C3H4,cyclo-     1.894-15
 C3H5,allyl      4.186-13
 C3H6,propylene  3.328-10
 C3H6,cyclo-     3.086-13
 C3H6O,acetone   3.086-13
 C3H6O,propanal  4.830-14
 C3H7,n-propyl   7.225-16
 C3H7,i-propyl   9.363-16
 C3H8            1.321-11
 C3O2            5.143-13
 C4H2,butadiyne  2.049-15
 C4H6,butadiene  2.185-13
 C4H6,1butyne    3.067-15
 C4H6,2butyne    6.023-15
 C4H6,cyclo-     1.101-16
 C4H8,1-butene   2.366-14
 C4H8,cis2-buten 1.433-14
 C4H8,tr2-butene 1.624-14
 C4H8,isobutene  2.196-14
 C4H10,n-butane  9.956-16
 C4H10,isobutane 4.398-16
 C5H6,1,3cyclo-  2.669-15
 C6H6            9.881-14
 *H              5.5670-8
 HCN             3.7844-5
 HCO             4.857-10
 HCCO            9.242-15
 HNC             1.6924-7
 HNCO            3.5281-7
 *H2             2.8698-1
 HCHO,formaldehy 1.9673-7
 HCOOH           8.5602-9
 H2O             8.6220-3
 NCO             9.907-15
 *NH             1.817-15
 NH2             4.540-11
 NH3             1.1835-4
 *NO             7.390-14
 *N2             4.2772-1
 N2H2            7.639-16
 N2H4            1.402-16
 *OH             1.785-11
 C(gr)           5.4433-2

  * THERMODYNAMIC PROPERTIES FITTED TO 20000.K









         THERMODYNAMIC EQUILIBRIUM COMBUSTION PROPERTIES AT ASSIGNED

                                     VOLUME

 CASE =                

             REACTANT                       MOLES         ENERGY      TEMP
                                                         KJ/KG-MOL      K
 FUEL        C8H18,isooctane              1.0000000   -226154.811    300.000
 OXIDANT     O2                          12.5000000     -2439.995    300.000
 OXIDANT     N2                          47.0238000     -2440.472    300.000

 O/F=    3.85480  %FUEL= 20.598152  R,EQ.RATIO= 3.900000  PHI,EQ.RATIO= 3.900000

 THERMODYNAMIC PROPERTIES

 P, BAR            6.2180
 T, K             1207.55
 RHO, KG/CU M    1.2804 0
 H, KJ/KG          10.650
 U, KJ/KG         -474.98
 G, KJ/KG        -12465.3
 S, KJ/(KG)(K)    10.3316

 M, (1/n)          20.675
 MW, MOL WT        19.405
 (dLV/dLP)t      -1.02076
 (dLV/dLT)p        1.2593
 Cp, KJ/(KG)(K)    3.0850
 GAMMAs            1.2284
 SON VEL,M/SEC      772.4

 MOLE FRACTIONS

 CH2             2.668-15
 CH3             2.6594-8
 CH2OH           2.636-13
 CH3O            5.824-15
 CH4             8.3002-3
 CH3OH           2.4860-9
 *CN             5.472-15
 *CO             2.0541-1
 *CO2            4.7560-3
 COOH            2.596-12
 C2H2,acetylene  3.4211-8
 C2H2,vinylidene 2.468-15
 CH2CO,ketene    2.3003-8
 O(CH)2O         6.486-15
 C2H3,vinyl      2.902-13
 CH3CN           1.7190-7
 CH3CO,acetyl    1.313-12
 C2H4            7.1493-7
 C2H4O,ethylen-o 7.018-16
 CH3CHO,ethanal  8.549-10
 CH3COOH         6.697-12
 C2H5            9.983-12
 C2H6            1.9225-7
 C2H5OH          7.572-13
 CH3OCH3         8.414-16
 OCCN            5.075-16
 C2N2            3.368-12
 C3H3,2-propynl  1.423-13
 C3H4,allene     1.053-11
 C3H4,propyne    3.408-11
 C3H4,cyclo-     1.585-15
 C3H5,allyl      3.818-13
 C3H6,propylene  3.402-10
 C3H6,cyclo-     3.078-13
 C3H6O,acetone   3.384-13
 C3H6O,propanal  5.157-14
 C3H7,n-propyl   6.999-16
 C3H7,i-propyl   9.146-16
 C3H8            1.495-11
 C3O2            4.465-13
 C4H2,butadiyne  1.486-15
 C4H6,butadiene  2.079-13
 C4H6,1butyne    2.813-15
 C4H6,2butyne    5.619-15
 C4H6,cyclo-     1.018-16
 C4H8,1-butene   2.482-14
 C4H8,cis2-buten 1.515-14
 C4H8,tr2-butene 1.717-14
 C4H8,isobutene  2.331-14
 C4H10,n-butane  1.156-15
 C4H10,isobutane 5.137-16
 C5H6,1,3cyclo-  2.506-15
 C6H6            9.646-14
 *H              4.7426-8
 HCN             3.4275-5
 HCO             4.274-10
 HCCO            7.358-15
 HNC             1.4643-7
 HNCO            3.4623-7
 *H2             2.8874-1
 HCHO,formaldehy 1.9462-7
 HCOOH           9.2548-9
 H2O             9.3776-3
 NCO             8.049-15
 *NH             1.396-15
 NH2             3.969-11
 NH3             1.2371-4
 *NO             6.187-14
 *N2             4.2183-1
 N2H2            6.537-16
 N2H4            1.319-16
 *OH             1.572-11
 C(gr)           6.1424-2

  * THERMODYNAMIC PROPERTIES FITTED TO 20000.K









         THERMODYNAMIC EQUILIBRIUM COMBUSTION PROPERTIES AT ASSIGNED

                                     VOLUME

 CASE =                

             REACTANT                       MOLES         ENERGY      TEMP
                                                         KJ/KG-MOL      K
 FUEL        C8H18,isooctane              1.0000000   -226154.811    300.000
 OXIDANT     O2                          12.5000000     -2439.995    300.000
 OXIDANT     N2                          47.0238000     -2440.472    300.000

 O/F=    3.75843  %FUEL= 21.015316  R,EQ.RATIO= 4.000000  PHI,EQ.RATIO= 4.000000

 THERMODYNAMIC PROPERTIES

 P, BAR            6.1816
 T, K             1199.22
 RHO, KG/CU M    1.2804 0
 H, KJ/KG        -0.09623
 U, KJ/KG         -482.88
 G, KJ/KG        -12395.1
 S, KJ/(KG)(K)    10.3360

 M, (1/n)          20.653
 MW, MOL WT        19.244
 (dLV/dLP)t      -1.02230
 (dLV/dLT)p        1.2804
 Cp, KJ/(KG)(K)    3.2200
 GAMMAs            1.2235
 SON VEL,M/SEC      768.6

 MOLE FRACTIONS

 CH2             2.056-15
 CH3             2.4411-8
 CH2OH           2.456-13
 CH3O            5.296-15
 CH4             8.9480-3
 CH3OH           2.6521-9
 *CN             4.014-15
 *CO             2.0089-1
 *CO2            5.1188-3
 COOH            2.480-12
 C2H2,acetylene  2.9465-8
 C2H2,vinylidene 1.873-15
 CH2CO,ketene    2.1779-8
 O(CH)2O         6.209-15
 C2H3,vinyl      2.400-13
 CH3CN           1.6596-7
 CH3CO,acetyl    1.216-12
 C2H4            7.0594-7
 C2H4O,ethylen-o 6.747-16
 CH3CHO,ethanal  8.893-10
 CH3COOH         7.559-12
 C2H5            9.470-12
 C2H6            2.1111-7
 C2H5OH          8.347-13
 CH3OCH3         8.966-16
 OCCN            3.943-16
 C2N2            2.676-12
 C3H3,2-propynl  1.147-13
 C3H4,allene     9.423-12
 C3H4,propyne    3.065-11
 C3H4,cyclo-     1.338-15
 C3H5,allyl      3.498-13
 C3H6,propylene  3.473-10
 C3H6,cyclo-     3.070-13
 C3H6O,acetone   3.690-13
 C3H6O,propanal  5.484-14
 C3H7,n-propyl   6.791-16
 C3H7,i-propyl   8.945-16
 C3H8            1.682-11
 C3O2            3.896-13
 C4H2,butadiyne  1.095-15
 C4H6,butadiene  1.983-13
 C4H6,1butyne    2.591-15
 C4H6,2butyne    5.261-15
 C4H8,1-butene   2.597-14
 C4H8,cis2-buten 1.597-14
 C4H8,tr2-butene 1.811-14
 C4H8,isobutene  2.468-14
 C4H10,n-butane  1.332-15
 C4H10,isobutane 5.954-16
 C5H6,1,3cyclo-  2.360-15
 C6H6            9.428-14
 *H              4.0719-8
 HCN             3.1185-5
 HCO             3.780-10
 HCCO            5.918-15
 HNC             1.2758-7
 HNCO            3.3969-7
 *H2             2.9038-1
 HCHO,formaldehy 1.9243-7
 HCOOH           9.9481-9
 H2O             1.0146-2
 NCO             6.599-15
 *NH             1.086-15
 NH2             3.493-11
 NH3             1.2899-4
 *NO             5.219-14
 *N2             4.1612-1
 N2H2            5.635-16
 N2H4            1.245-16
 *OH             1.391-11
 C(gr)           6.8239-2

  * THERMODYNAMIC PROPERTIES FITTED TO 20000.K



