
 *******************************************************************************

         NASA-GLENN CHEMICAL EQUILIBRIUM PROGRAM CEA2, MAY 21, 2004
                   BY  BONNIE MCBRIDE AND SANFORD GORDON
      REFS: NASA RP-1311, PART I, 1994 AND NASA RP-1311, PART II, 1996

 *******************************************************************************



 problem    phi,eq.ratio=2.1,2.2,2.3,2.4,2.5,2.6,2.7,2.8,2.9,3,3.1,3.2,3.3,3.4,3.
 5,3.6,
       uv   rho,kg/m**3=1.24836,  t,k=3800
 react
   fuel=CH3OH moles=1 t,k=300
   oxid=O2 moles=1.5 t,k=300
   oxid=N2 moles=5.6429 t,k=300
 output
      trace=1e-16 siunits short
 end




         THERMODYNAMIC EQUILIBRIUM COMBUSTION PROPERTIES AT ASSIGNED

                                     VOLUME

 CASE =                

             REACTANT                       MOLES         ENERGY      TEMP
                                                         KJ/KG-MOL      K
 FUEL        CH3OH                        1.0000000   -203352.771    300.000
 OXIDANT     O2                           1.5000000     -2439.995    300.000
 OXIDANT     N2                           5.6429000     -2440.472    300.000

 O/F=    3.06259  %FUEL= 24.614862  R,EQ.RATIO= 1.647059  PHI,EQ.RATIO= 2.100000

 THERMODYNAMIC PROPERTIES

 P, BAR            9.1398
 T, K             2015.28
 RHO, KG/CU M    1.2484 0
 H, KJ/KG         -893.80
 U, KJ/KG        -1625.94
 G, KJ/KG        -22222.0
 S, KJ/(KG)(K)    10.5833

 M, (1/n)          22.886
 (dLV/dLP)t      -1.00007
 (dLV/dLT)p        1.0019
 Cp, KJ/(KG)(K)    1.7941
 GAMMAs            1.2550
 SON VEL,M/SEC      958.6

 MOLE FRACTIONS

 *C              4.251-16
 *CH             2.465-15
 CH2             5.301-13
 CH3             2.226-10
 CH2OH           3.013-12
 CH3O            2.981-13
 CH4             7.1451-9
 CH3OH           1.197-11
 *CN             1.588-11
 *CO             1.3360-1
 *CO2            4.2218-2
 COOH            2.3114-8
 C2H2,acetylene  1.032-12
 C2H2,vinylidene 1.033-16
 CH2CO,ketene    9.478-12
 O(CH)2O         4.866-15
 HO(CO)2OH       2.501-16
 CH3CN           6.584-15
 CH3CO,acetyl    2.032-15
 C2H4            8.456-15
 CH3CHO,ethanal  1.639-15
 CH3COOH         4.231-16
 OCCN            1.578-14
 C2N2            8.404-15
 C2O             2.957-14
 C3O2            5.975-15
 *H              2.2562-4
 HCN             4.2074-7
 HCO             9.3754-8
 HCCO            3.585-14
 HNC             2.1836-8
 HNCO            1.7673-7
 HNO             8.429-10
 HNO2            6.320-12
 HO2             4.963-11
 *H2             1.4258-1
 HCHO,formaldehy 7.1922-8
 HCOOH           1.0094-7
 H2O             2.0891-1
 H2O2            1.947-10
 *N              2.551-10
 NCO             1.303-10
 *NH             1.6021-9
 NH2             3.7565-8
 NH3             6.6772-6
 NH2OH           4.732-12
 *NO             2.1130-6
 NO2             3.702-12
 *N2             4.7243-1
 NCN             2.428-16
 N2H2            2.007-12
 N2H4            2.199-15
 N2O             2.787-10
 N3              2.316-15
 N3H             2.193-14
 *O              3.8915-8
 *OH             3.8309-5
 *O2             2.4521-8

  * THERMODYNAMIC PROPERTIES FITTED TO 20000.K









         THERMODYNAMIC EQUILIBRIUM COMBUSTION PROPERTIES AT ASSIGNED

                                     VOLUME

 CASE =                

             REACTANT                       MOLES         ENERGY      TEMP
                                                         KJ/KG-MOL      K
 FUEL        CH3OH                        1.0000000   -203352.771    300.000
 OXIDANT     O2                           1.5000000     -2439.995    300.000
 OXIDANT     N2                           5.6429000     -2440.472    300.000

 O/F=    2.92338  %FUEL= 25.488241  R,EQ.RATIO= 1.692308  PHI,EQ.RATIO= 2.200000

 THERMODYNAMIC PROPERTIES

 P, BAR            9.0167
 T, K             1962.24
 RHO, KG/CU M    1.2484 0
 H, KJ/KG         -958.35
 U, KJ/KG        -1680.63
 G, KJ/KG        -21847.9
 S, KJ/(KG)(K)    10.6458

 M, (1/n)          22.588
 (dLV/dLP)t      -1.00006
 (dLV/dLT)p        1.0014
 Cp, KJ/(KG)(K)    1.8014
 GAMMAs            1.2576
 SON VEL,M/SEC      953.1

 MOLE FRACTIONS

 *C              1.918-16
 *CH             1.409-15
 CH2             4.417-13
 CH3             2.863-10
 CH2OH           3.023-12
 CH3O            2.800-13
 CH4             1.3618-8
 CH3OH           1.686-11
 *CN             1.111-11
 *CO             1.3867-1
 *CO2            4.1013-2
 COOH            1.7464-8
 C2H2,acetylene  1.574-12
 C2H2,vinylidene 1.180-16
 CH2CO,ketene    1.358-11
 O(CH)2O         5.357-15
 HO(CO)2OH       2.252-16
 C2H3,vinyl      1.274-16
 CH3CN           1.335-14
 CH3CO,acetyl    2.829-15
 C2H4            1.870-14
 CH3CHO,ethanal  3.078-15
 CH3COOH         7.157-16
 OCCN            1.346-14
 C2N2            9.905-15
 C2O             2.256-14
 C3O2            7.134-15
 *H              1.6440-4
 HCN             4.9801-7
 HCO             7.9025-8
 HCCO            3.424-14
 HNC             2.3376-8
 HNCO            1.8784-7
 HNO             4.409-10
 HNO2            2.628-12
 HO2             1.840-11
 *H2             1.5527-1
 HCHO,formaldehy 8.0541-8
 HCOOH           1.0229-7
 H2O             2.0398-1
 H2O2            9.516-11
 *N              1.169-10
 NCO             8.854-11
 *NH             9.282-10
 NH2             2.9821-8
 NH3             8.0871-6
 NH2OH           3.393-12
 *NO             1.0837-6
 NO2             1.242-12
 *N2             4.6087-1
 NCN             1.483-16
 N2H2            1.491-12
 N2H4            2.140-15
 N2O             1.408-10
 N3              1.085-15
 N3H             1.345-14
 *O              1.5620-8
 *OH             2.2738-5
 *O2             8.8816-9

  * THERMODYNAMIC PROPERTIES FITTED TO 20000.K









         THERMODYNAMIC EQUILIBRIUM COMBUSTION PROPERTIES AT ASSIGNED

                                     VOLUME

 CASE =                

             REACTANT                       MOLES         ENERGY      TEMP
                                                         KJ/KG-MOL      K
 FUEL        CH3OH                        1.0000000   -203352.771    300.000
 OXIDANT     O2                           1.5000000     -2439.995    300.000
 OXIDANT     N2                           5.6429000     -2440.472    300.000

 O/F=    2.79627  %FUEL= 26.341615  R,EQ.RATIO= 1.735849  PHI,EQ.RATIO= 2.300000

 THERMODYNAMIC PROPERTIES

 P, BAR            8.8936
 T, K             1911.09
 RHO, KG/CU M    1.2484 0
 H, KJ/KG        -1021.65
 U, KJ/KG        -1734.07
 G, KJ/KG        -21480.4
 S, KJ/(KG)(K)    10.7053

 M, (1/n)          22.304
 (dLV/dLP)t      -1.00004
 (dLV/dLT)p        1.0010
 Cp, KJ/(KG)(K)    1.8095
 GAMMAs            1.2601
 SON VEL,M/SEC      947.5

 MOLE FRACTIONS

 *CH             7.811-16
 CH2             3.575-13
 CH3             3.585-10
 CH2OH           2.972-12
 CH3O            2.576-13
 CH4             2.5321-8
 CH3OH           2.329-11
 *CN             7.617-12
 *CO             1.4329-1
 *CO2            4.0066-2
 COOH            1.3143-8
 C2H2,acetylene  2.321-12
 C2H2,vinylidene 1.297-16
 CH2CO,ketene    1.899-11
 O(CH)2O         5.794-15
 HO(CO)2OH       2.029-16
 C2H3,vinyl      1.750-16
 CH3CN           2.616-14
 CH3CO,acetyl    3.823-15
 C2H4            3.982-14
 CH3CHO,ethanal  5.608-15
 CH3COOH         1.186-15
 OCCN            1.122-14
 C2N2            1.137-14
 C2O             1.680-14
 C3O2            8.338-15
 *H              1.1856-4
 HCN             5.7943-7
 HCO             6.5746-8
 HCCO            3.186-14
 HNC             2.4556-8
 HNCO            1.9800-7
 HNO             2.296-10
 HNO2            1.095-12
 HO2             6.814-12
 *H2             1.6755-1
 HCHO,formaldehy 8.9003-8
 HCOOH           1.0328-7
 H2O             1.9909-1
 H2O2            4.645-11
 *N              5.295-11
 NCO             5.952-11
 *NH             5.303-10
 NH2             2.3348-8
 NH3             9.6789-6
 NH2OH           2.410-12
 *NO             5.5574-7
 NO2             4.181-13
 *N2             4.4986-1
 N2H2            1.094-12
 N2H4            2.041-15
 N2O             7.121-11
 N3              5.031-16
 N3H             8.157-15
 *O              6.2415-9
 *OH             1.3449-5
 *O2             3.2306-9

  * THERMODYNAMIC PROPERTIES FITTED TO 20000.K









         THERMODYNAMIC EQUILIBRIUM COMBUSTION PROPERTIES AT ASSIGNED

                                     VOLUME

 CASE =                

             REACTANT                       MOLES         ENERGY      TEMP
                                                         KJ/KG-MOL      K
 FUEL        CH3OH                        1.0000000   -203352.771    300.000
 OXIDANT     O2                           1.5000000     -2439.995    300.000
 OXIDANT     N2                           5.6429000     -2440.472    300.000

 O/F=    2.67976  %FUEL= 27.175664  R,EQ.RATIO= 1.777778  PHI,EQ.RATIO= 2.400000

 THERMODYNAMIC PROPERTIES

 P, BAR            8.7706
 T, K             1861.76
 RHO, KG/CU M    1.2484 0
 H, KJ/KG        -1083.73
 U, KJ/KG        -1786.30
 G, KJ/KG        -21119.7
 S, KJ/(KG)(K)    10.7618

 M, (1/n)          22.033
 (dLV/dLP)t      -1.00004
 (dLV/dLT)p        1.0007
 Cp, KJ/(KG)(K)    1.8182
 GAMMAs            1.2623
 SON VEL,M/SEC      941.7

 MOLE FRACTIONS

 *CH             4.215-16
 CH2             2.820-13
 CH3             4.389-10
 CH2OH           2.871-12
 CH3O            2.327-13
 CH4             4.6172-8
 CH3OH           3.167-11
 *CN             5.121-12
 *CO             1.4753-1
 *CO2            3.9335-2
 COOH            9.8544-9
 C2H2,acetylene  3.328-12
 C2H2,vinylidene 1.379-16
 CH2CO,ketene    2.604-11
 O(CH)2O         6.176-15
 HO(CO)2OH       1.830-16
 C2H3,vinyl      2.324-16
 CH3CN           4.993-14
 CH3CO,acetyl    5.043-15
 C2H4            8.223-14
 CH3CHO,ethanal  9.977-15
 CH3COOH         1.936-15
 C2H6            1.242-16
 OCCN            9.180-15
 C2N2            1.277-14
 C2O             1.224-14
 C3O2            9.575-15
 *H              8.4685-5
 HCN             6.6462-7
 HCO             5.4068-8
 HCCO            2.899-14
 HNC             2.5384-8
 HNCO            2.0729-7
 HNO             1.190-10
 HNO2            4.566-13
 HO2             2.517-12
 *H2             1.7943-1
 HCHO,formaldehy 9.7279-8
 HCOOH           1.0399-7
 H2O             1.9424-1
 H2O2            2.261-11
 *N              2.368-11
 NCO             3.962-11
 *NH             2.990-10
 NH2             1.8055-8
 NH3             1.1473-5
 NH2OH           1.697-12
 *NO             2.8455-7
 NO2             1.408-13
 *N2             4.3936-1
 N2H2            7.924-13
 N2H4            1.915-15
 N2O             3.598-11
 N3              2.307-16
 N3H             4.893-15
 *O              2.4789-9
 *OH             7.9213-6
 *O2             1.1767-9

  * THERMODYNAMIC PROPERTIES FITTED TO 20000.K









         THERMODYNAMIC EQUILIBRIUM COMBUSTION PROPERTIES AT ASSIGNED

                                     VOLUME

 CASE =                

             REACTANT                       MOLES         ENERGY      TEMP
                                                         KJ/KG-MOL      K
 FUEL        CH3OH                        1.0000000   -203352.771    300.000
 OXIDANT     O2                           1.5000000     -2439.995    300.000
 OXIDANT     N2                           5.6429000     -2440.472    300.000

 O/F=    2.57257  %FUEL= 27.991035  R,EQ.RATIO= 1.818182  PHI,EQ.RATIO= 2.500000

 THERMODYNAMIC PROPERTIES

 P, BAR            8.6478
 T, K             1814.14
 RHO, KG/CU M    1.2484 0
 H, KJ/KG        -1144.62
 U, KJ/KG        -1837.35
 G, KJ/KG        -20765.8
 S, KJ/(KG)(K)    10.8157

 M, (1/n)          21.774
 (dLV/dLP)t      -1.00003
 (dLV/dLT)p        1.0005
 Cp, KJ/(KG)(K)    1.8272
 GAMMAs            1.2645
 SON VEL,M/SEC      935.9

 MOLE FRACTIONS

 *CH             2.218-16
 CH2             2.175-13
 CH3             5.272-10
 CH2OH           2.732-12
 CH3O            2.070-13
 CH4             8.2912-8
 CH3OH           4.252-11
 *CN             3.384-12
 *CO             1.5142-1
 *CO2            3.8788-2
 COOH            7.3603-9
 C2H2,acetylene  4.660-12
 C2H2,vinylidene 1.424-16
 CH2CO,ketene    3.512-11
 O(CH)2O         6.501-15
 HO(CO)2OH       1.653-16
 C2H3,vinyl      2.999-16
 CH3CN           9.326-14
 CH3CO,acetyl    6.518-15
 C2H4            1.657-13
 CH3CHO,ethanal  1.741-14
 CH3COOH         3.121-15
 C2H6            3.335-16
 OCCN            7.382-15
 C2N2            1.407-14
 C2O             8.744-15
 C3O2            1.083-14
 *H              5.9939-5
 HCN             7.5324-7
 HCO             4.4000-8
 HCCO            2.587-14
 HNC             2.5881-8
 HNCO            2.1580-7
 HNO             6.128-11
 HNO2            1.900-13
 HO2             9.257-13
 *H2             1.9091-1
 HCHO,formaldehy 1.0535-7
 HCOOH           1.0449-7
 H2O             1.8946-1
 H2O2            1.097-11
 *N              1.046-11
 NCO             2.613-11
 *NH             1.664-10
 NH2             1.3805-8
 NH3             1.3493-5
 NH2OH           1.186-12
 *NO             1.4528-7
 NO2             4.737-14
 *N2             4.2933-1
 N2H2            5.680-13
 N2H4            1.770-15
 N2O             1.814-11
 N3              1.047-16
 N3H             2.905-15
 *O              9.773-10
 *OH             4.6428-6
 *O2             4.281-10

  * THERMODYNAMIC PROPERTIES FITTED TO 20000.K









         THERMODYNAMIC EQUILIBRIUM COMBUSTION PROPERTIES AT ASSIGNED

                                     VOLUME

 CASE =                

             REACTANT                       MOLES         ENERGY      TEMP
                                                         KJ/KG-MOL      K
 FUEL        CH3OH                        1.0000000   -203352.771    300.000
 OXIDANT     O2                           1.5000000     -2439.995    300.000
 OXIDANT     N2                           5.6429000     -2440.472    300.000

 O/F=    2.47363  %FUEL= 28.788350  R,EQ.RATIO= 1.857143  PHI,EQ.RATIO= 2.600000

 THERMODYNAMIC PROPERTIES

 P, BAR            8.5255
 T, K             1768.17
 RHO, KG/CU M    1.2484 0
 H, KJ/KG        -1204.34
 U, KJ/KG        -1887.28
 G, KJ/KG        -20418.9
 S, KJ/(KG)(K)    10.8670

 M, (1/n)          21.527
 (dLV/dLP)t      -1.00003
 (dLV/dLT)p        1.0004
 Cp, KJ/(KG)(K)    1.8365
 GAMMAs            1.2666
 SON VEL,M/SEC      930.0

 MOLE FRACTIONS

 *CH             1.140-16
 CH2             1.643-13
 CH3             6.231-10
 CH2OH           2.565-12
 CH3O            1.815-13
 CH4             1.4711-7
 CH3OH           5.649-11
 *CN             2.200-12
 *CO             1.5501-1
 *CO2            3.8401-2
 COOH            5.4762-9
 C2H2,acetylene  6.398-12
 C2H2,vinylidene 1.433-16
 CH2CO,ketene    4.673-11
 O(CH)2O         6.773-15
 HO(CO)2OH       1.495-16
 C2H3,vinyl      3.776-16
 CH3CN           1.712-13
 CH3CO,acetyl    8.282-15
 C2H4            3.272-13
 CH3CHO,ethanal  2.993-14
 CH3COOH         4.986-15
 C2H6            8.767-16
 OCCN            5.846-15
 C2N2            1.526-14
 C2O             6.136-15
 C3O2            1.211-14
 *H              4.2054-5
 HCN             8.4503-7
 HCO             3.5463-8
 HCCO            2.268-14
 HNC             2.6073-8
 HNCO            2.2360-7
 HNO             3.136-11
 HNO2            7.879-14
 HO2             3.383-13
 *H2             2.0201-1
 HCHO,formaldehy 1.1320-7
 HCOOH           1.0483-7
 H2O             1.8476-1
 H2O2            5.296-12
 *N              4.557-12
 NCO             1.707-11
 *NH             9.147-11
 NH2             1.0445-8
 NH3             1.5767-5
 NH2OH           8.223-13
 *NO             7.3880-8
 NO2             1.587-14
 *N2             4.1976-1
 N2H2            4.031-13
 N2H4            1.617-15
 N2O             9.119-12
 N3H             1.708-15
 *O              3.820-10
 *OH             2.7064-6
 *O2             1.552-10

  * THERMODYNAMIC PROPERTIES FITTED TO 20000.K









         THERMODYNAMIC EQUILIBRIUM COMBUSTION PROPERTIES AT ASSIGNED

                                     VOLUME

 CASE =                

             REACTANT                       MOLES         ENERGY      TEMP
                                                         KJ/KG-MOL      K
 FUEL        CH3OH                        1.0000000   -203352.771    300.000
 OXIDANT     O2                           1.5000000     -2439.995    300.000
 OXIDANT     N2                           5.6429000     -2440.472    300.000

 O/F=    2.38201  %FUEL= 29.568202  R,EQ.RATIO= 1.894737  PHI,EQ.RATIO= 2.700000

 THERMODYNAMIC PROPERTIES

 P, BAR            8.4037
 T, K             1723.75
 RHO, KG/CU M    1.2484 0
 H, KJ/KG        -1262.94
 U, KJ/KG        -1936.11
 G, KJ/KG        -20078.9
 S, KJ/(KG)(K)    10.9158

 M, (1/n)          21.290
 (dLV/dLP)t      -1.00003
 (dLV/dLT)p        1.0003
 Cp, KJ/(KG)(K)    1.8460
 GAMMAs            1.2685
 SON VEL,M/SEC      924.1

 MOLE FRACTIONS

 CH2             1.218-13
 CH3             7.261-10
 CH2OH           2.379-12
 CH3O            1.573-13
 CH4             2.5860-7
 CH3OH           7.441-11
 *CN             1.408-12
 *CO             1.5831-1
 *CO2            3.8155-2
 COOH            4.0582-9
 C2H2,acetylene  8.639-12
 C2H2,vinylidene 1.411-16
 CH2CO,ketene    6.149-11
 O(CH)2O         6.993-15
 HO(CO)2OH       1.354-16
 C2H3,vinyl      4.655-16
 CH3CN           3.099-13
 CH3CO,acetyl    1.037-14
 C2H4            6.360-13
 CH3CHO,ethanal  5.083-14
 CH3COOH         7.912-15
 C2H6            2.267-15
 OCCN            4.564-15
 C2N2            1.632-14
 C2O             4.235-15
 C3O2            1.339-14
 *H              2.9255-5
 HCN             9.3979-7
 HCO             2.8326-8
 HCCO            1.958-14
 HNC             2.5990-8
 HNCO            2.3076-7
 HNO             1.593-11
 HNO2            3.252-14
 HO2             1.227-13
 *H2             2.1275-1
 HCHO,formaldehy 1.2082-7
 HCOOH           1.0506-7
 H2O             1.8014-1
 H2O2            2.542-12
 *N              1.960-12
 NCO             1.106-11
 *NH             4.966-11
 NH2             7.8258-9
 NH3             1.8328-5
 NH2OH           5.661-13
 *NO             3.7388-8
 NO2             5.286-15
 *N2             4.1060-1
 N2H2            2.833-13
 N2H4            1.460-15
 N2O             4.564-12
 N3H             9.940-16
 *O              1.479-10
 *OH             1.5682-6
 *O2             5.601-11

  * THERMODYNAMIC PROPERTIES FITTED TO 20000.K









         THERMODYNAMIC EQUILIBRIUM COMBUSTION PROPERTIES AT ASSIGNED

                                     VOLUME

 CASE =                

             REACTANT                       MOLES         ENERGY      TEMP
                                                         KJ/KG-MOL      K
 FUEL        CH3OH                        1.0000000   -203352.771    300.000
 OXIDANT     O2                           1.5000000     -2439.995    300.000
 OXIDANT     N2                           5.6429000     -2440.472    300.000

 O/F=    2.29694  %FUEL= 30.331159  R,EQ.RATIO= 1.931034  PHI,EQ.RATIO= 2.800000

 THERMODYNAMIC PROPERTIES

 P, BAR            8.2825
 T, K             1680.81
 RHO, KG/CU M    1.2484 0
 H, KJ/KG        -1320.42
 U, KJ/KG        -1983.89
 G, KJ/KG        -19745.8
 S, KJ/(KG)(K)    10.9622

 M, (1/n)          21.064
 (dLV/dLP)t      -1.00003
 (dLV/dLT)p        1.0003
 Cp, KJ/(KG)(K)    1.8557
 GAMMAs            1.2703
 SON VEL,M/SEC      918.1

 MOLE FRACTIONS

 CH2             8.874-14
 CH3             8.359-10
 CH2OH           2.184-12
 CH3O            1.347-13
 CH4             4.5142-7
 CH3OH           9.735-11
 *CN             8.884-13
 *CO             1.6135-1
 *CO2            3.8036-2
 COOH            2.9952-9
 C2H2,acetylene  1.150-11
 C2H2,vinylidene 1.361-16
 CH2CO,ketene    8.014-11
 O(CH)2O         7.164-15
 HO(CO)2OH       1.227-16
 C2H3,vinyl      5.634-16
 CH3CN           5.547-13
 CH3CO,acetyl    1.283-14
 C2H4            1.220-12
 CH3CHO,ethanal  8.548-14
 CH3COOH         1.250-14
 C2H6            5.788-15
 OCCN            3.517-15
 C2N2            1.724-14
 C2O             2.878-15
 C3O2            1.466-14
 *H              2.0183-5
 HCN             1.0373-6
 HCO             2.2434-8
 HCCO            1.666-14
 HNC             2.5664-8
 HNCO            2.3735-7
 HNO             8.033-12
 HNO2            1.335-14
 HO2             4.409-14
 *H2             2.2314-1
 HCHO,formaldehy 1.2820-7
 HCOOH           1.0520-7
 H2O             1.7560-1
 H2O2            1.213-12
 *N              8.313-13
 NCO             7.100-12
 *NH             2.663-11
 NH2             5.8090-9
 NH3             2.1215-5
 NH2OH           3.870-13
 *NO             1.8812-8
 NO2             1.748-15
 *N2             4.0183-1
 N2H2            1.973-13
 N2H4            1.305-15
 N2O             2.273-12
 N3H             5.730-16
 *O              5.664-11
 *OH             9.0282-7
 *O2             2.008-11

  * THERMODYNAMIC PROPERTIES FITTED TO 20000.K









         THERMODYNAMIC EQUILIBRIUM COMBUSTION PROPERTIES AT ASSIGNED

                                     VOLUME

 CASE =                

             REACTANT                       MOLES         ENERGY      TEMP
                                                         KJ/KG-MOL      K
 FUEL        CH3OH                        1.0000000   -203352.771    300.000
 OXIDANT     O2                           1.5000000     -2439.995    300.000
 OXIDANT     N2                           5.6429000     -2440.472    300.000

 O/F=    2.21773  %FUEL= 31.077763  R,EQ.RATIO= 1.966102  PHI,EQ.RATIO= 2.900000

 THERMODYNAMIC PROPERTIES

 P, BAR            8.1619
 T, K             1639.29
 RHO, KG/CU M    1.2484 0
 H, KJ/KG        -1376.83
 U, KJ/KG        -2030.64
 G, KJ/KG        -19419.5
 S, KJ/(KG)(K)    11.0064

 M, (1/n)          20.847
 (dLV/dLP)t      -1.00003
 (dLV/dLT)p        1.0003
 Cp, KJ/(KG)(K)    1.8654
 GAMMAs            1.2721
 SON VEL,M/SEC      912.0

 MOLE FRACTIONS

 CH2             6.360-14
 CH3             9.522-10
 CH2OH           1.986-12
 CH3O            1.142-13
 CH4             7.8399-7
 CH3OH           1.267-10
 *CN             5.525-13
 *CO             1.6416-1
 *CO2            3.8031-2
 COOH            2.2014-9
 C2H2,acetylene  1.511-11
 C2H2,vinylidene 1.290-16
 CH2CO,ketene    1.036-10
 O(CH)2O         7.289-15
 HO(CO)2OH       1.114-16
 C2H3,vinyl      6.708-16
 CH3CN           9.845-13
 CH3CO,acetyl    1.570-14
 C2H4            2.318-12
 CH3CHO,ethanal  1.427-13
 CH3COOH         1.967-14
 C2H5            1.692-16
 C2H6            1.464-14
 OCCN            2.677-15
 C2N2            1.801-14
 C2O             1.926-15
 C3O2            1.593-14
 *H              1.3810-5
 HCN             1.1376-6
 HCO             1.7625-8
 HCCO            1.399-14
 HNC             2.5129-8
 HNCO            2.4342-7
 HNO             4.017-12
 HNO2            5.440-15
 HO2             1.569-14
 *H2             2.3321-1
 HCHO,formaldehy 1.3536-7
 HCOOH           1.0528-7
 H2O             1.7114-1
 H2O2            5.742-13
 *N              3.478-13
 NCO             4.520-12
 *NH             1.410-11
 NH2             4.2736-9
 NH3             2.4471-5
 NH2OH           2.627-13
 *NO             9.4045-9
 NO2             5.733-16
 *N2             3.9342-1
 N2H2            1.363-13
 N2H4            1.156-15
 N2O             1.126-12
 N3H             3.271-16
 *O              2.145-11
 *OH             5.1618-7
 *O2             7.142-12

  * THERMODYNAMIC PROPERTIES FITTED TO 20000.K









         THERMODYNAMIC EQUILIBRIUM COMBUSTION PROPERTIES AT ASSIGNED

                                     VOLUME

 CASE =                

             REACTANT                       MOLES         ENERGY      TEMP
                                                         KJ/KG-MOL      K
 FUEL        CH3OH                        1.0000000   -203352.771    300.000
 OXIDANT     O2                           1.5000000     -2439.995    300.000
 OXIDANT     N2                           5.6429000     -2440.472    300.000

 O/F=    2.14381  %FUEL= 31.808534  R,EQ.RATIO= 2.000000  PHI,EQ.RATIO= 3.000000

 THERMODYNAMIC PROPERTIES

 P, BAR            8.0422
 T, K             1599.11
 RHO, KG/CU M    1.2484 0
 H, KJ/KG        -1432.18
 U, KJ/KG        -2076.40
 G, KJ/KG        -19099.8
 S, KJ/(KG)(K)    11.0485

 M, (1/n)          20.639
 (dLV/dLP)t      -1.00004
 (dLV/dLT)p        1.0003
 Cp, KJ/(KG)(K)    1.8752
 GAMMAs            1.2737
 SON VEL,M/SEC      905.9

 MOLE FRACTIONS

 CH2             4.488-14
 CH3             1.0745-9
 CH2OH           1.789-12
 CH3O            9.595-14
 CH4             1.3568-6
 CH3OH           1.640-10
 *CN             3.390-13
 *CO             1.6675-1
 *CO2            3.8131-2
 COOH            1.6110-9
 C2H2,acetylene  1.966-11
 C2H2,vinylidene 1.202-16
 CH2CO,ketene    1.331-10
 O(CH)2O         7.372-15
 HO(CO)2OH       1.012-16
 C2H3,vinyl      7.875-16
 CH3CN           1.736-12
 CH3CO,acetyl    1.905-14
 C2H4            4.367-12
 CH3CHO,ethanal  2.368-13
 CH3COOH         3.092-14
 C2H5            2.874-16
 C2H6            3.680-14
 OCCN            2.015-15
 C2N2            1.864-14
 C2O             1.272-15
 C3O2            1.719-14
 *H              9.3730-6
 HCN             1.2404-6
 HCO             1.3739-8
 HCCO            1.161-14
 HNC             2.4418-8
 HNCO            2.4902-7
 HNO             1.992-12
 HNO2            2.200-15
 HO2             5.523-15
 *H2             2.4296-1
 HCHO,formaldehy 1.4228-7
 HCOOH           1.0533-7
 H2O             1.6675-1
 H2O2            2.697-13
 *N              1.434-13
 NCO             2.852-12
 *NH             7.378-12
 NH2             3.1171-9
 NH3             2.8148-5
 NH2OH           1.772-13
 *NO             4.6679-9
 NO2             1.861-16
 *N2             3.8536-1
 N2H2            9.332-14
 N2H4            1.016-15
 N2O             5.541-13
 N3H             1.849-16
 *O              8.026-12
 *OH             2.9297-7
 *O2             2.517-12

  * THERMODYNAMIC PROPERTIES FITTED TO 20000.K









         THERMODYNAMIC EQUILIBRIUM COMBUSTION PROPERTIES AT ASSIGNED

                                     VOLUME

 CASE =                

             REACTANT                       MOLES         ENERGY      TEMP
                                                         KJ/KG-MOL      K
 FUEL        CH3OH                        1.0000000   -203352.771    300.000
 OXIDANT     O2                           1.5000000     -2439.995    300.000
 OXIDANT     N2                           5.6429000     -2440.472    300.000

 O/F=    2.07466  %FUEL= 32.523972  R,EQ.RATIO= 2.032787  PHI,EQ.RATIO= 3.100000

 THERMODYNAMIC PROPERTIES

 P, BAR            7.9233
 T, K             1560.22
 RHO, KG/CU M    1.2484 0
 H, KJ/KG        -1486.51
 U, KJ/KG        -2121.20
 G, KJ/KG        -18786.9
 S, KJ/(KG)(K)    11.0884

 M, (1/n)          20.439
 (dLV/dLP)t      -1.00005
 (dLV/dLT)p        1.0003
 Cp, KJ/(KG)(K)    1.8852
 GAMMAs            1.2753
 SON VEL,M/SEC      899.7

 MOLE FRACTIONS

 CH2             3.121-14
 CH3             1.2024-9
 CH2OH           1.599-12
 CH3O            7.987-14
 CH4             2.3433-6
 CH3OH           2.117-10
 *CN             2.052-13
 *CO             1.6913-1
 *CO2            3.8330-2
 COOH            1.1738-9
 C2H2,acetylene  2.533-11
 C2H2,vinylidene 1.103-16
 CH2CO,ketene    1.701-10
 O(CH)2O         7.416-15
 C2H3,vinyl      9.127-16
 CH3CN           3.045-12
 CH3CO,acetyl    2.293-14
 C2H4            8.179-12
 CH3CHO,ethanal  3.914-13
 CH3COOH         4.857-14
 C2H5            4.838-16
 C2H6            9.211-14
 OCCN            1.499-15
 C2N2            1.913-14
 C2O             8.279-16
 C3O2            1.843-14
 *H              6.3103-6
 HCN             1.3459-6
 HCO             1.0630-8
 HCCO            9.524-15
 HNC             2.3562-8
 HNCO            2.5420-7
 HNO             9.784-13
 HNO2            8.821-16
 HO2             1.921-15
 *H2             2.5243-1
 HCHO,formaldehy 1.4898-7
 HCOOH           1.0535-7
 H2O             1.6244-1
 H2O2            1.257-13
 *N              5.831-14
 NCO             1.784-12
 *NH             3.813-12
 NH2             2.2546-9
 NH3             3.2304-5
 NH2OH           1.186-13
 *NO             2.2991-9
 *N2             3.7763-1
 N2H2            6.338-14
 N2H4            8.865-16
 N2O             2.708-13
 N3H             1.035-16
 *O              2.965-12
 *OH             1.6502-7
 *O2             8.782-13

  * THERMODYNAMIC PROPERTIES FITTED TO 20000.K









         THERMODYNAMIC EQUILIBRIUM COMBUSTION PROPERTIES AT ASSIGNED

                                     VOLUME

 CASE =                

             REACTANT                       MOLES         ENERGY      TEMP
                                                         KJ/KG-MOL      K
 FUEL        CH3OH                        1.0000000   -203352.771    300.000
 OXIDANT     O2                           1.5000000     -2439.995    300.000
 OXIDANT     N2                           5.6429000     -2440.472    300.000

 O/F=    2.00982  %FUEL= 33.224554  R,EQ.RATIO= 2.064516  PHI,EQ.RATIO= 3.200000

 THERMODYNAMIC PROPERTIES

 P, BAR            7.8053
 T, K             1522.56
 RHO, KG/CU M    1.2484 0
 H, KJ/KG        -1539.83
 U, KJ/KG        -2165.07
 G, KJ/KG        -18480.5
 S, KJ/(KG)(K)    11.1265

 M, (1/n)          20.247
 (dLV/dLP)t      -1.00006
 (dLV/dLT)p        1.0004
 Cp, KJ/(KG)(K)    1.8954
 GAMMAs            1.2768
 SON VEL,M/SEC      893.5

 MOLE FRACTIONS

 CH2             2.140-14
 CH3             1.3357-9
 CH2OH           1.417-12
 CH3O            6.593-14
 CH4             4.0430-6
 CH3OH           2.726-10
 *CN             1.226-13
 *CO             1.7131-1
 *CO2            3.8622-2
 COOH            8.513-10
 C2H2,acetylene  3.239-11
 CH2CO,ketene    2.163-10
 O(CH)2O         7.425-15
 C2H3,vinyl      1.046-15
 CH3CN           5.323-12
 CH3CO,acetyl    2.741-14
 C2H4            1.525-11
 CH3CHO,ethanal  6.450-13
 CH3COOH         7.633-14
 C2H5            8.080-16
 C2H6            2.301-13
 C2H5OH          1.352-16
 OCCN            1.104-15
 C2N2            1.949-14
 C2O             5.320-16
 C3O2            1.965-14
 *H              4.2144-6
 HCN             1.4540-6
 HCO             8.1640-9
 HCCO            7.729-15
 HNC             2.2591-8
 HNCO            2.5900-7
 HNO             4.761-13
 HNO2            3.504-16
 HO2             6.599-16
 *H2             2.6161-1
 HCHO,formaldehy 1.5544-7
 HCOOH           1.0537-7
 H2O             1.5820-1
 H2O2            5.800-14
 *N              2.335-14
 NCO             1.107-12
 *NH             1.946-12
 NH2             1.6175-9
 NH3             3.7010-5
 NH2OH           7.891-14
 *NO             1.1231-9
 *N2             3.7020-1
 N2H2            4.270-14
 N2H4            7.679-16
 N2O             1.313-13
 *O              1.081-12
 *OH             9.2205-8
 *O2             3.030-13

  * THERMODYNAMIC PROPERTIES FITTED TO 20000.K









         THERMODYNAMIC EQUILIBRIUM COMBUSTION PROPERTIES AT ASSIGNED

                                     VOLUME

 CASE =                

             REACTANT                       MOLES         ENERGY      TEMP
                                                         KJ/KG-MOL      K
 FUEL        CH3OH                        1.0000000   -203352.771    300.000
 OXIDANT     O2                           1.5000000     -2439.995    300.000
 OXIDANT     N2                           5.6429000     -2440.472    300.000

 O/F=    1.94892  %FUEL= 33.910737  R,EQ.RATIO= 2.095238  PHI,EQ.RATIO= 3.300000

 THERMODYNAMIC PROPERTIES

 P, BAR            7.6883
 T, K             1486.08
 RHO, KG/CU M    1.2484 0
 H, KJ/KG        -1592.16
 U, KJ/KG        -2208.04
 G, KJ/KG        -18180.7
 S, KJ/(KG)(K)    11.1626

 M, (1/n)          20.063
 (dLV/dLP)t      -1.00007
 (dLV/dLT)p        1.0005
 Cp, KJ/(KG)(K)    1.9059
 GAMMAs            1.2781
 SON VEL,M/SEC      887.2

 MOLE FRACTIONS

 CH2             1.447-14
 CH3             1.4741-9
 CH2OH           1.248-12
 CH3O            5.400-14
 CH4             6.9757-6
 CH3OH           3.502-10
 *CN             7.232-14
 *CO             1.7332-1
 *CO2            3.9003-2
 COOH            6.145-10
 C2H2,acetylene  4.113-11
 CH2CO,ketene    2.740-10
 O(CH)2O         7.403-15
 C2H3,vinyl      1.186-15
 CH3CN           9.287-12
 CH3CO,acetyl    3.257-14
 C2H4            2.836-11
 CH3CHO,ethanal  1.061-12
 CH3COOH         1.201-13
 C2H5            1.341-15
 C2H6            5.744-13
 C2H5OH          2.609-16
 OCCN            8.054-16
 C2N2            1.971-14
 C2O             3.375-16
 C3O2            2.086-14
 *H              2.7923-6
 HCN             1.5647-6
 HCO             6.2257-9
 HCCO            6.208-15
 HNC             2.1532-8
 HNCO            2.6345-7
 HNO             2.295-13
 HNO2            1.378-16
 HO2             2.237-16
 *H2             2.7054-1
 HCHO,formaldehy 1.6169-7
 HCOOH           1.0540-7
 H2O             1.5403-1
 H2O2            2.652-14
 *N              9.215-15
 NCO             6.805-13
 *NH             9.809-13
 NH2             1.1512-9
 NH3             4.2343-5
 NH2OH           5.213-14
 *NO             5.439-10
 *N2             3.6305-1
 N2H2            2.855-14
 N2H4            6.609-16
 N2O             6.320-14
 *O              3.884-13
 *OH             5.1097-8
 *O2             1.033-13

  * THERMODYNAMIC PROPERTIES FITTED TO 20000.K









         THERMODYNAMIC EQUILIBRIUM COMBUSTION PROPERTIES AT ASSIGNED

                                     VOLUME

 CASE =                

             REACTANT                       MOLES         ENERGY      TEMP
                                                         KJ/KG-MOL      K
 FUEL        CH3OH                        1.0000000   -203352.771    300.000
 OXIDANT     O2                           1.5000000     -2439.995    300.000
 OXIDANT     N2                           5.6429000     -2440.472    300.000

 O/F=    1.89160  %FUEL= 34.582961  R,EQ.RATIO= 2.125000  PHI,EQ.RATIO= 3.400000

 THERMODYNAMIC PROPERTIES

 P, BAR            7.5724
 T, K             1450.75
 RHO, KG/CU M    1.2484 0
 H, KJ/KG        -1643.54
 U, KJ/KG        -2250.13
 G, KJ/KG        -17887.3
 S, KJ/(KG)(K)    11.1969

 M, (1/n)          19.885
 (dLV/dLP)t      -1.00010
 (dLV/dLT)p        1.0007
 Cp, KJ/(KG)(K)    1.9170
 GAMMAs            1.2793
 SON VEL,M/SEC      880.9

 MOLE FRACTIONS

 CH2             9.664-15
 CH3             1.6171-9
 CH2OH           1.091-12
 CH3O            4.389-14
 CH4             1.2045-5
 CH3OH           4.492-10
 *CN             4.213-14
 *CO             1.7514-1
 *CO2            3.9469-2
 COOH            4.415-10
 C2H2,acetylene  5.192-11
 CH2CO,ketene    3.461-10
 O(CH)2O         7.352-15
 C2H3,vinyl      1.334-15
 CH3CN           1.618-11
 CH3CO,acetyl    3.852-14
 C2H4            5.262-11
 CH3CHO,ethanal  1.744-12
 CH3COOH         1.893-13
 C2H5            2.216-15
 C2H6            1.435-12
 C2H5OH          5.031-16
 OCCN            5.817-16
 C2N2            1.981-14
 C2O             2.114-16
 C3H4,propyne    1.466-16
 C3O2            2.204-14
 *H              1.8355-6
 HCN             1.6781-6
 HCO             4.7147-9
 HCCO            4.939-15
 HNC             2.0411-8
 HNCO            2.6760-7
 HNO             1.095-13
 *H2             2.7923-1
 HCHO,formaldehy 1.6772-7
 HCOOH           1.0543-7
 H2O             1.4992-1
 H2O2            1.201-14
 *N              3.582-15
 NCO             4.148-13
 *NH             4.884-13
 NH2             8.129-10
 NH3             4.8395-5
 NH2OH           3.421-14
 *NO             2.611-10
 *N2             3.5618-1
 N2H2            1.894-14
 N2H4            5.654-16
 N2O             3.017-14
 *O              1.376-13
 *OH             2.8080-8
 *O2             3.480-14

  * THERMODYNAMIC PROPERTIES FITTED TO 20000.K









         THERMODYNAMIC EQUILIBRIUM COMBUSTION PROPERTIES AT ASSIGNED

                                     VOLUME

 CASE =                

             REACTANT                       MOLES         ENERGY      TEMP
                                                         KJ/KG-MOL      K
 FUEL        CH3OH                        1.0000000   -203352.771    300.000
 OXIDANT     O2                           1.5000000     -2439.995    300.000
 OXIDANT     N2                           5.6429000     -2440.472    300.000

 O/F=    1.83755  %FUEL= 35.241648  R,EQ.RATIO= 2.153846  PHI,EQ.RATIO= 3.500000

 THERMODYNAMIC PROPERTIES

 P, BAR            7.4577
 T, K             1416.52
 RHO, KG/CU M    1.2484 0
 H, KJ/KG        -1693.98
 U, KJ/KG        -2291.38
 G, KJ/KG        -17600.6
 S, KJ/(KG)(K)    11.2294

 M, (1/n)          19.715
 (dLV/dLP)t      -1.00014
 (dLV/dLT)p        1.0011
 Cp, KJ/(KG)(K)    1.9290
 GAMMAs            1.2804
 SON VEL,M/SEC      874.6

 MOLE FRACTIONS

 CH2             6.373-15
 CH3             1.7645-9
 CH2OH           9.478-13
 CH3O            3.543-14
 CH4             2.0827-5
 CH3OH           5.755-10
 *CN             2.425-14
 *CO             1.7679-1
 *CO2            4.0017-2
 COOH            3.158-10
 C2H2,acetylene  6.520-11
 CH2CO,ketene    4.360-10
 O(CH)2O         7.275-15
 C2H3,vinyl      1.487-15
 CH3CN           2.818-11
 CH3CO,acetyl    4.535-14
 C2H4            9.755-11
 CH3CHO,ethanal  2.866-12
 CH3COOH         2.992-13
 C2H5            3.646-15
 C2H6            3.594-12
 C2H5OH          9.707-16
 OCCN            4.163-16
 C2N2            1.979-14
 C2O             1.309-16
 C3H4,propyne    2.862-16
 C3H6,propylene  2.525-16
 C3O2            2.319-14
 *H              1.1973-6
 HCN             1.7943-6
 HCO             3.5465-9
 HCCO            3.894-15
 HNC             1.9251-8
 HNCO            2.7146-7
 HNO             5.171-14
 *H2             2.8768-1
 HCHO,formaldehy 1.7354-7
 HCOOH           1.0549-7
 H2O             1.4586-1
 H2O2            5.386-15
 *N              1.372-15
 NCO             2.508-13
 *NH             2.402-13
 NH2             5.698-10
 NH3             5.5268-5
 NH2OH           2.230-14
 *NO             1.242-10
 *N2             3.4957-1
 N2H2            1.247-14
 N2H4            4.810-16
 N2O             1.428-14
 *O              4.809-14
 *OH             1.5301-8
 *O2             1.158-14

  * THERMODYNAMIC PROPERTIES FITTED TO 20000.K









         THERMODYNAMIC EQUILIBRIUM COMBUSTION PROPERTIES AT ASSIGNED

                                     VOLUME

 CASE =                

             REACTANT                       MOLES         ENERGY      TEMP
                                                         KJ/KG-MOL      K
 FUEL        CH3OH                        1.0000000   -203352.771    300.000
 OXIDANT     O2                           1.5000000     -2439.995    300.000
 OXIDANT     N2                           5.6429000     -2440.472    300.000

 O/F=    1.78651  %FUEL= 35.887203  R,EQ.RATIO= 2.181818  PHI,EQ.RATIO= 3.600000

 THERMODYNAMIC PROPERTIES

 P, BAR            7.3443
 T, K             1383.37
 RHO, KG/CU M    1.2484 0
 H, KJ/KG        -1743.48
 U, KJ/KG        -2331.80
 G, KJ/KG        -17320.6
 S, KJ/(KG)(K)    11.2602

 M, (1/n)          19.551
 (dLV/dLP)t      -1.00021
 (dLV/dLT)p        1.0018
 Cp, KJ/(KG)(K)    1.9425
 GAMMAs            1.2813
 SON VEL,M/SEC      868.2

 MOLE FRACTIONS

 CH2             4.153-15
 CH3             1.9159-9
 CH2OH           8.184-13
 CH3O            2.840-14
 CH4             3.6072-5
 CH3OH           7.368-10
 *CN             1.379-14
 *CO             1.7829-1
 *CO2            4.0645-2
 COOH            2.248-10
 C2H2,acetylene  8.149-11
 CH2CO,ketene    5.481-10
 O(CH)2O         7.177-15
 C2H3,vinyl      1.645-15
 CH3CN           4.909-11
 CH3CO,acetyl    5.318-14
 C2H4            1.808-10
 CH3CHO,ethanal  4.711-12
 CH3COOH         4.741-13
 C2H5            5.981-15
 C2H6            9.020-12
 C2H5OH          1.875-15
 OCCN            2.953-16
 C2N2            1.968-14
 C3H4,allene     1.874-16
 C3H4,propyne    5.574-16
 C3H6,propylene  7.078-16
 C3O2            2.432-14
 *H              7.7523-7
 HCN             1.9133-6
 HCO             2.6506-9
 HCCO            3.043-15
 HNC             1.8071-8
 HNCO            2.7505-7
 HNO             2.419-14
 *H2             2.9590-1
 HCHO,formaldehy 1.7914-7
 HCOOH           1.0557-7
 H2O             1.4187-1
 H2O2            2.392-15
 *N              5.179-16
 NCO             1.504-13
 *NH             1.168-13
 NH2             3.965-10
 NH3             6.3079-5
 NH2OH           1.445-14
 *NO             5.854-11
 *N2             3.4320-1
 N2H2            8.149-15
 N2H4            4.070-16
 N2O             6.704-15
 *O              1.657-14
 *OH             8.2692-9
 *O2             3.803-15

  * THERMODYNAMIC PROPERTIES FITTED TO 20000.K



