
 *******************************************************************************

         NASA-GLENN CHEMICAL EQUILIBRIUM PROGRAM CEA2, MAY 21, 2004
                   BY  BONNIE MCBRIDE AND SANFORD GORDON
      REFS: NASA RP-1311, PART I, 1994 AND NASA RP-1311, PART II, 1996

 *******************************************************************************



 problem    phi,eq.ratio=3.7,3.8,3.9,4,
       hp   p,bar=1,  t,k=3800
 react
   fuel=C2H2,acetylene moles=1 t,k=300
   oxid=O2 moles=2.5 t,k=300
   oxid=N2 moles=9.4048 t,k=300
 output
      trace=1e-16 siunits short
 end




         THERMODYNAMIC EQUILIBRIUM COMBUSTION PROPERTIES AT ASSIGNED

                                   PRESSURES

 CASE =                

             REACTANT                       MOLES         ENERGY      TEMP
                                                         KJ/KG-MOL      K
 FUEL        C2H2,acetylene               1.0000000    228281.530    300.000
 OXIDANT     O2                           2.5000000        54.358    300.000
 OXIDANT     N2                           9.4048000        53.881    300.000

 O/F=    3.56513  %FUEL= 21.905173  R,EQ.RATIO= 3.700000  PHI,EQ.RATIO= 3.700000

 THERMODYNAMIC PROPERTIES

 P, BAR            1.0000
 T, K             2334.81
 RHO, KG/CU M    1.2482-1
 H, KJ/KG         1921.99
 U, KJ/KG         1120.81
 G, KJ/KG        -23322.5
 S, KJ/(KG)(K)    10.8122

 M, (1/n)          24.230
 MW, MOL WT        21.768
 (dLV/dLP)t      -1.00128
 (dLV/dLT)p        1.0295
 Cp, KJ/(KG)(K)    2.1832
 GAMMAs            1.1980
 SON VEL,M/SEC      979.7

 MOLE FRACTIONS

 *C              1.3114-8
 *CH             1.0580-8
 CH2             1.5471-7
 CH3             3.3259-6
 CH2OH           6.483-13
 CH3O            9.064-14
 CH4             6.8238-6
 CH3OH           2.142-13
 *CN             1.6522-5
 CNN             3.840-13
 *CO             2.4748-1
 *CO2            4.5177-7
 COOH            4.063-13
 *C2             2.4865-9
 C2H             1.1655-6
 C2H2,acetylene  8.8739-4
 C2H2,vinylidene 3.7963-7
 CH2CO,ketene    4.5811-8
 O(CH)2O         3.680-16
 C2H3,vinyl      4.8720-8
 CH3CN           1.9352-7
 CH3CO,acetyl    5.264-12
 C2H4            2.3564-7
 CH3CHO,ethanal  4.304-13
 C2H5            2.190-11
 C2H6            6.959-12
 CCN             5.825-12
 CNC             2.1920-9
 OCCN            1.5488-9
 C2N2            1.2287-5
 C2O             1.6361-8
 *C3             2.8340-8
 C3H3,1-propynl  6.973-11
 C3H3,2-propynl  1.4374-7
 C3H4,allene     3.1491-9
 C3H4,propyne    7.2991-9
 C3H4,cyclo-     2.847-11
 C3H5,allyl      1.012-11
 C3H6,propylene  1.910-12
 C3H6,cyclo-     9.368-15
 CNCOCN          6.621-14
 C3O2            8.823-11
 *C4             8.551-12
 C4H2,butadiyne  1.8628-6
 C4H4,1,3-cyclo- 1.446-13
 C4H6,butadiene  1.533-13
 C4H6,1butyne    2.018-14
 C4H6,2butyne    1.272-14
 C4H6,cyclo-     4.522-16
 C4N2            2.1612-8
 *C5             3.883-11
 C5H6,1,3cyclo-  4.075-15
 C6H2            4.1108-9
 C6H5,phenyl     3.247-15
 C6H6            1.152-14
 *H              4.5555-3
 HCN             1.4140-2
 HCO             2.2966-7
 HCCN            3.485-11
 HCCO            2.9256-9
 HNC             1.2186-3
 HNCO            4.1993-8
 HNO             1.174-13
 *H2             1.7227-1
 HCHO,formaldehy 1.9339-8
 HCOOH           1.864-13
 H2O             1.7953-6
 *N              3.6411-8
 NCO             6.494-10
 *NH             3.2060-8
 NH2             7.0283-8
 NH3             6.7833-7
 *NO             6.979-10
 *N2             4.5781-1
 NCN             1.579-10
 N2H2            1.666-12
 N2O             3.125-14
 N3              2.888-14
 N3H             3.227-14
 *O              1.430-10
 *OH             8.8958-9
 *O2             6.200-16
 C(gr)           1.0160-1

  * THERMODYNAMIC PROPERTIES FITTED TO 20000.K









         THERMODYNAMIC EQUILIBRIUM COMBUSTION PROPERTIES AT ASSIGNED

                                   PRESSURES

 CASE =                

             REACTANT                       MOLES         ENERGY      TEMP
                                                         KJ/KG-MOL      K
 FUEL        C2H2,acetylene               1.0000000    228281.530    300.000
 OXIDANT     O2                           2.5000000        54.358    300.000
 OXIDANT     N2                           9.4048000        53.881    300.000

 O/F=    3.47131  %FUEL= 22.364798  R,EQ.RATIO= 3.800000  PHI,EQ.RATIO= 3.800000

 THERMODYNAMIC PROPERTIES

 P, BAR            1.0000
 T, K             2341.51
 RHO, KG/CU M    1.2449-1
 H, KJ/KG         1962.28
 U, KJ/KG         1159.03
 G, KJ/KG        -23379.9
 S, KJ/(KG)(K)    10.8230

 M, (1/n)          24.237
 MW, MOL WT        21.588
 (dLV/dLP)t      -1.00134
 (dLV/dLT)p        1.0307
 Cp, KJ/(KG)(K)    2.2105
 GAMMAs            1.1955
 SON VEL,M/SEC      979.9

 MOLE FRACTIONS

 *C              1.4448-8
 *CH             1.1561-8
 CH2             1.6553-7
 CH3             3.4666-6
 CH2OH           6.677-13
 CH3O            9.395-14
 CH4             6.9586-6
 CH3OH           2.168-13
 *CN             1.7400-5
 CNN             4.157-13
 *CO             2.4398-1
 *CO2            4.3290-7
 COOH            4.038-13
 *C2             2.7822-9
 C2H             1.2677-6
 C2H2,acetylene  9.2739-4
 C2H2,vinylidene 4.0723-7
 CH2CO,ketene    4.6505-8
 O(CH)2O         3.697-16
 C2H3,vinyl      5.1906-8
 CH3CN           1.9879-7
 CH3CO,acetyl    5.432-12
 C2H4            2.4456-7
 CH3CHO,ethanal  4.380-13
 C2H5            2.318-11
 C2H6            7.222-12
 CCN             6.477-12
 CNC             2.3953-9
 OCCN            1.5969-9
 C2N2            1.2677-5
 C2O             1.7125-8
 *C3             3.1672-8
 C3H3,1-propynl  7.590-11
 C3H3,2-propynl  1.5398-7
 C3H4,allene     3.3371-9
 C3H4,propyne    7.7265-9
 C3H4,cyclo-     3.056-11
 C3H5,allyl      1.080-11
 C3H6,propylene  2.013-12
 C3H6,cyclo-     9.927-15
 CNCOCN          6.853-14
 C3O2            8.838-11
 *C4             9.853-12
 C4H2,butadiyne  2.0115-6
 C4H4,1,3-cyclo- 1.577-13
 C4H6,butadiene  1.642-13
 C4H6,1butyne    2.174-14
 C4H6,2butyne    1.365-14
 C4H6,cyclo-     4.866-16
 C4N2            2.3028-8
 *C5             4.487-11
 C5H6,1,3cyclo-  4.371-15
 C6H2            4.5865-9
 C6H5,phenyl     3.550-15
 C6H6            1.225-14
 *H              4.7186-3
 HCN             1.4387-2
 HCO             2.3390-7
 HCCN            3.807-11
 HCCO            3.0406-9
 HNC             1.2513-3
 HNCO            4.1679-8
 HNO             1.205-13
 *H2             1.7429-1
 HCHO,formaldehy 1.9454-8
 HCOOH           1.829-13
 H2O             1.7719-6
 *N              3.8632-8
 NCO             6.625-10
 *NH             3.3742-8
 NH2             7.2848-8
 NH3             6.8565-7
 *NO             7.078-10
 *N2             4.5108-1
 NCN             1.676-10
 N2H2            1.730-12
 N2H4            1.021-16
 N2O             3.160-14
 N3              3.029-14
 N3H             3.347-14
 *O              1.491-10
 *OH             9.0660-9
 *O2             6.300-16
 C(gr)           1.0931-1

  * THERMODYNAMIC PROPERTIES FITTED TO 20000.K









         THERMODYNAMIC EQUILIBRIUM COMBUSTION PROPERTIES AT ASSIGNED

                                   PRESSURES

 CASE =                

             REACTANT                       MOLES         ENERGY      TEMP
                                                         KJ/KG-MOL      K
 FUEL        C2H2,acetylene               1.0000000    228281.530    300.000
 OXIDANT     O2                           2.5000000        54.358    300.000
 OXIDANT     N2                           9.4048000        53.881    300.000

 O/F=    3.38230  %FUEL= 22.819045  R,EQ.RATIO= 3.900000  PHI,EQ.RATIO= 3.900000

 THERMODYNAMIC PROPERTIES

 P, BAR            1.0000
 T, K             2348.02
 RHO, KG/CU M    1.2418-1
 H, KJ/KG         2002.10
 U, KJ/KG         1196.83
 G, KJ/KG        -23435.4
 S, KJ/(KG)(K)    10.8336

 M, (1/n)          24.244
 MW, MOL WT        21.412
 (dLV/dLP)t      -1.00139
 (dLV/dLT)p        1.0319
 Cp, KJ/(KG)(K)    2.2376
 GAMMAs            1.1931
 SON VEL,M/SEC      980.2

 MOLE FRACTIONS

 *C              1.5862-8
 *CH             1.2593-8
 CH2             1.7667-7
 CH3             3.6079-6
 CH2OH           6.867-13
 CH3O            9.723-14
 CH4             7.0911-6
 CH3OH           2.193-13
 *CN             1.8289-5
 CNN             4.486-13
 *CO             2.4058-1
 *CO2            4.1526-7
 COOH            4.012-13
 *C2             3.1006-9
 C2H             1.3746-6
 C2H2,acetylene  9.6764-4
 C2H2,vinylidene 4.3573-7
 CH2CO,ketene    4.7173-8
 O(CH)2O         3.712-16
 C2H3,vinyl      5.5176-8
 CH3CN           2.0399-7
 CH3CO,acetyl    5.598-12
 C2H4            2.5349-7
 CH3CHO,ethanal  4.453-13
 C2H5            2.449-11
 C2H6            7.486-12
 CCN             7.173-12
 CNC             2.6089-9
 OCCN            1.6442-9
 C2N2            1.3061-5
 C2O             1.7891-8
 *C3             3.5255-8
 C3H3,1-propynl  8.238-11
 C3H3,2-propynl  1.6454-7
 C3H4,allene     3.5292-9
 C3H4,propyne    8.1627-9
 C3H4,cyclo-     3.271-11
 C3H5,allyl      1.150-11
 C3H6,propylene  2.117-12
 C3H6,cyclo-     1.050-14
 CNCOCN          7.081-14
 C3O2            8.849-11
 *C4             1.130-11
 C4H2,butadiyne  2.1661-6
 C4H4,1,3-cyclo- 1.714-13
 C4H6,butadiene  1.755-13
 C4H6,1butyne    2.335-14
 C4H6,2butyne    1.462-14
 C4H6,cyclo-     5.222-16
 C4N2            2.4475-8
 *C5             5.157-11
 C5H6,1,3cyclo-  4.677-15
 C6H2            5.0976-9
 C6H5,phenyl     3.869-15
 C6H6            1.300-14
 *H              4.8811-3
 HCN             1.4628-2
 HCO             2.3801-7
 HCCN            4.146-11
 HCCO            3.1550-9
 HNC             1.2835-3
 HNCO            4.1363-8
 HNO             1.235-13
 *H2             1.7626-1
 HCHO,formaldehy 1.9562-8
 HCOOH           1.794-13
 H2O             1.7492-6
 *N              4.0896-8
 NCO             6.752-10
 *NH             3.5443-8
 NH2             7.5401-8
 NH3             6.9270-7
 *NO             7.173-10
 *N2             4.4454-1
 NCN             1.774-10
 N2H2            1.794-12
 N2H4            1.060-16
 N2O             3.192-14
 N3              3.170-14
 N3H             3.466-14
 *O              1.551-10
 *OH             9.2310-9
 *O2             6.396-16
 C(gr)           1.1681-1

  * THERMODYNAMIC PROPERTIES FITTED TO 20000.K









         THERMODYNAMIC EQUILIBRIUM COMBUSTION PROPERTIES AT ASSIGNED

                                   PRESSURES

 CASE =                

             REACTANT                       MOLES         ENERGY      TEMP
                                                         KJ/KG-MOL      K
 FUEL        C2H2,acetylene               1.0000000    228281.530    300.000
 OXIDANT     O2                           2.5000000        54.358    300.000
 OXIDANT     N2                           9.4048000        53.881    300.000

 O/F=    3.29775  %FUEL= 23.268007  R,EQ.RATIO= 4.000000  PHI,EQ.RATIO= 4.000000

 THERMODYNAMIC PROPERTIES

 P, BAR            1.0000
 T, K             2354.34
 RHO, KG/CU M    1.2388-1
 H, KJ/KG         2041.46
 U, KJ/KG         1234.24
 G, KJ/KG        -23489.1
 S, KJ/(KG)(K)    10.8440

 M, (1/n)          24.250
 MW, MOL WT        21.241
 (dLV/dLP)t      -1.00145
 (dLV/dLT)p        1.0332
 Cp, KJ/(KG)(K)    2.2645
 GAMMAs            1.1907
 SON VEL,M/SEC      980.4

 MOLE FRACTIONS

 *C              1.7357-8
 *CH             1.3677-8
 CH2             1.8814-7
 CH3             3.7497-6
 CH2OH           7.055-13
 CH3O            1.005-13
 CH4             7.2216-6
 CH3OH           2.217-13
 *CN             1.9187-5
 CNN             4.828-13
 *CO             2.3727-1
 *CO2            3.9872-7
 COOH            3.986-13
 *C2             3.4422-9
 C2H             1.4864-6
 C2H2,acetylene  1.0081-3
 C2H2,vinylidene 4.6513-7
 CH2CO,ketene    4.7818-8
 O(CH)2O         3.725-16
 C2H3,vinyl      5.8528-8
 CH3CN           2.0912-7
 CH3CO,acetyl    5.762-12
 C2H4            2.6243-7
 CH3CHO,ethanal  4.525-13
 C2H5            2.582-11
 C2H6            7.750-12
 CCN             7.916-12
 CNC             2.8326-9
 OCCN            1.6905-9
 C2N2            1.3438-5
 C2O             1.8659-8
 *C3             3.9096-8
 C3H3,1-propynl  8.915-11
 C3H3,2-propynl  1.7543-7
 C3H4,allene     3.7253-9
 C3H4,propyne    8.6074-9
 C3H4,cyclo-     3.494-11
 C3H5,allyl      1.221-11
 C3H6,propylene  2.224-12
 C3H6,cyclo-     1.108-14
 CNCOCN          7.305-14
 C3O2            8.855-11
 *C4             1.289-11
 C4H2,butadiyne  2.3266-6
 C4H4,1,3-cyclo- 1.858-13
 C4H6,butadiene  1.872-13
 C4H6,1butyne    2.503-14
 C4H6,2butyne    1.561-14
 C4H6,cyclo-     5.592-16
 C4N2            2.5952-8
 *C5             5.900-11
 C5H6,1,3cyclo-  4.993-15
 C6H2            5.6449-9
 C6H5,phenyl     4.205-15
 C6H6            1.378-14
 *H              5.0429-3
 HCN             1.4862-2
 HCO             2.4198-7
 HCCN            4.501-11
 HCCO            3.2688-9
 HNC             1.3152-3
 HNCO            4.1046-8
 HNO             1.265-13
 *H2             1.7817-1
 HCHO,formaldehy 1.9663-8
 HCOOH           1.761-13
 H2O             1.7272-6
 *N              4.3200-8
 NCO             6.874-10
 *NH             3.7161-8
 NH2             7.7941-8
 NH3             6.9950-7
 *NO             7.262-10
 *N2             4.3818-1
 NCN             1.875-10
 N2H2            1.857-12
 N2H4            1.100-16
 N2O             3.222-14
 N3              3.312-14
 N3H             3.584-14
 *O              1.611-10
 *OH             9.3909-9
 *O2             6.486-16
 C(gr)           1.2410-1

  * THERMODYNAMIC PROPERTIES FITTED TO 20000.K



