
 *******************************************************************************

         NASA-GLENN CHEMICAL EQUILIBRIUM PROGRAM CEA2, MAY 21, 2004
                   BY  BONNIE MCBRIDE AND SANFORD GORDON
      REFS: NASA RP-1311, PART I, 1994 AND NASA RP-1311, PART II, 1996

 *******************************************************************************



 problem    phi,eq.ratio=0.5,0.6,0.7,0.8,0.9,1,1.1,1.2,1.3,1.4,1.5,1.6,1.7,1.8,1.
 9,2,
     hp   p,bar=1,  t,k=3800
 react
   fuel=C2H4 moles=1  t,k=300
   oxid=O2 moles=3  t,k=300
   oxid=N2 moles=11.2857  t,k=300
 output  short   trace=1e-16
 end




         THERMODYNAMIC EQUILIBRIUM COMBUSTION PROPERTIES AT ASSIGNED

                                   PRESSURES

 CASE =                

             REACTANT                       MOLES         ENERGY      TEMP
                                                         KJ/KG-MOL      K
 FUEL        C2H4                         1.0000000     52579.505    300.000
 OXIDANT     O2                           3.0000000        54.358    300.000
 OXIDANT     N2                          11.2857000        53.881    300.000

 O/F=   29.38330  %FUEL=  3.291282  R,EQ.RATIO= 0.500000  PHI,EQ.RATIO= 0.500000

 THERMODYNAMIC PROPERTIES

 P, BAR            1.0000
 T, K             1600.60
 RHO, KG/CU M    2.1658-1
 H, KJ/KG          63.497
 U, KJ/KG         -398.24
 G, KJ/KG        -14193.7
 S, KJ/(KG)(K)     8.9074

 M, (1/n)          28.822
 (dLV/dLP)t      -1.00001
 (dLV/dLT)p        1.0005
 Cp, KJ/(KG)(K)    1.3365
 GAMMAs            1.2756
 SON VEL,M/SEC      767.5

 MOLE FRACTIONS

 *CO             4.2749-6
 *CO2            6.7626-2
 COOH            2.466-12
 *H              6.5281-8
 HCO             3.035-16
 HNCO            2.698-15
 HNO             4.812-10
 HNO2            3.7037-8
 HNO3            1.582-11
 HO2             1.8856-7
 *H2             1.4199-6
 HCOOH           1.359-13
 H2O             6.7558-2
 H2O2            7.7685-9
 *N              5.917-13
 *NH             2.573-14
 NH2             9.154-15
 NH3             6.929-14
 *NO             1.3222-3
 NO2             3.7049-6
 NO3             1.910-12
 *N2             7.6259-1
 N2O             7.7822-8
 N2O3            1.489-14
 *O              4.6356-6
 *OH             1.4205-4
 *O2             1.0075-1
 O3              2.103-10

  * THERMODYNAMIC PROPERTIES FITTED TO 20000.K









         THERMODYNAMIC EQUILIBRIUM COMBUSTION PROPERTIES AT ASSIGNED

                                   PRESSURES

 CASE =                

             REACTANT                       MOLES         ENERGY      TEMP
                                                         KJ/KG-MOL      K
 FUEL        C2H4                         1.0000000     52579.505    300.000
 OXIDANT     O2                           3.0000000        54.358    300.000
 OXIDANT     N2                          11.2857000        53.881    300.000

 O/F=   24.48608  %FUEL=  3.923710  R,EQ.RATIO= 0.600000  PHI,EQ.RATIO= 0.600000

 THERMODYNAMIC PROPERTIES

 P, BAR            1.0000
 T, K             1806.68
 RHO, KG/CU M    1.9181-1
 H, KJ/KG          75.339
 U, KJ/KG         -446.02
 G, KJ/KG        -16358.0
 S, KJ/(KG)(K)     9.0959

 M, (1/n)          28.812
 (dLV/dLP)t      -1.00007
 (dLV/dLT)p        1.0026
 Cp, KJ/(KG)(K)    1.4059
 GAMMAs            1.2599
 SON VEL,M/SEC      810.5

 MOLE FRACTIONS

 *CO             6.2980-5
 *CO2            8.0535-2
 COOH            4.578-11
 *H              1.5324-6
 HCO             5.523-14
 HNCO            1.276-13
 HNO             3.3860-9
 HNO2            5.0951-8
 HNO3            1.246-11
 HO2             5.3742-7
 *H2             1.6331-5
 HCHO,formaldehy 4.338-16
 HCOOH           2.136-12
 H2O             8.0291-2
 H2O2            2.0865-8
 *N              3.580-11
 NCO             4.581-15
 *NH             1.853-12
 NH2             5.069-13
 NH3             1.664-12
 NH2OH           6.756-16
 *NO             2.5584-3
 NO2             3.9179-6
 NO3             2.602-12
 *N2             7.5672-1
 N2O             1.4438-7
 N2O3            2.384-14
 *O              3.6454-5
 *OH             5.7844-4
 *O2             7.9192-2
 O3              5.114-10

  * THERMODYNAMIC PROPERTIES FITTED TO 20000.K









         THERMODYNAMIC EQUILIBRIUM COMBUSTION PROPERTIES AT ASSIGNED

                                   PRESSURES

 CASE =                

             REACTANT                       MOLES         ENERGY      TEMP
                                                         KJ/KG-MOL      K
 FUEL        C2H4                         1.0000000     52579.505    300.000
 OXIDANT     O2                           3.0000000        54.358    300.000
 OXIDANT     N2                          11.2857000        53.881    300.000

 O/F=   20.98807  %FUEL=  4.547920  R,EQ.RATIO= 0.700000  PHI,EQ.RATIO= 0.700000

 THERMODYNAMIC PROPERTIES

 P, BAR            1.0000
 T, K             1996.09
 RHO, KG/CU M    1.7347-1
 H, KJ/KG          87.027
 U, KJ/KG         -489.43
 G, KJ/KG        -18401.0
 S, KJ/(KG)(K)     9.2621

 M, (1/n)          28.790
 (dLV/dLP)t      -1.00030
 (dLV/dLT)p        1.0102
 Cp, KJ/(KG)(K)    1.5176
 GAMMAs            1.2405
 SON VEL,M/SEC      845.6

 MOLE FRACTIONS

 *CO             4.9294-4
 *CO2            9.2856-2
 COOH            4.168-10
 *H              1.6440-5
 HCN             1.003-14
 HCO             2.880-12
 HNC             5.023-16
 HNCO            2.475-12
 HNO             1.3986-8
 HNO2            5.8981-8
 HNO3            8.978-12
 HO2             1.0592-6
 *H2             1.0746-4
 HCHO,formaldehy 2.192-14
 HCOOH           1.812-11
 H2O             9.2441-2
 H2O2            4.1113-8
 *N              7.380-10
 NCO             1.736-13
 *NH             4.517-11
 NH2             1.062-11
 NH3             1.967-11
 NH2OH           7.060-15
 *NO             3.8831-3
 NO2             3.5704-6
 NO3             2.686-12
 *N2             7.5056-1
 N2H2            2.326-16
 N2O             2.1387-7
 N2O3            2.777-14
 N3              1.190-15
 N3H             1.112-16
 *O              1.5614-4
 *OH             1.5839-3
 *O2             5.7894-2
 O3              8.099-10

  * THERMODYNAMIC PROPERTIES FITTED TO 20000.K









         THERMODYNAMIC EQUILIBRIUM COMBUSTION PROPERTIES AT ASSIGNED

                                   PRESSURES

 CASE =                

             REACTANT                       MOLES         ENERGY      TEMP
                                                         KJ/KG-MOL      K
 FUEL        C2H4                         1.0000000     52579.505    300.000
 OXIDANT     O2                           3.0000000        54.358    300.000
 OXIDANT     N2                          11.2857000        53.881    300.000

 O/F=   18.36456  %FUEL=  5.164072  R,EQ.RATIO= 0.800000  PHI,EQ.RATIO= 0.800000

 THERMODYNAMIC PROPERTIES

 P, BAR            1.0000
 T, K             2161.63
 RHO, KG/CU M    1.5988-1
 H, KJ/KG          98.564
 U, KJ/KG         -526.90
 G, KJ/KG        -20244.4
 S, KJ/(KG)(K)     9.4110

 M, (1/n)          28.735
 (dLV/dLP)t      -1.00106
 (dLV/dLT)p        1.0331
 Cp, KJ/(KG)(K)    1.7447
 GAMMAs            1.2135
 SON VEL,M/SEC      871.2

 MOLE FRACTIONS

 *CN             2.729-15
 *CO             2.4437-3
 *CO2            1.0335-1
 COOH            2.2207-9
 *H              9.8707-5
 HCN             4.058-13
 HCO             6.043-11
 HNC             2.708-14
 HNCO            2.526-11
 HNO             3.7932-8
 HNO2            5.7091-8
 HNO3            5.585-12
 HO2             1.5094-6
 *H2             4.7608-4
 HCHO,formaldehy 4.766-13
 HCOOH           9.748-11
 H2O             1.0368-1
 H2O2            6.2007-8
 *N              6.7360-9
 NCO             2.733-12
 *NH             4.918-10
 NH2             1.096-10
 NH3             1.415-10
 NH2OH           4.233-14
 *NO             4.7620-3
 NO2             2.7378-6
 NO3             2.050-12
 *N2             7.4383-1
 N2H2            2.746-15
 N2O             2.5863-7
 N2O3            2.315-14
 N3              9.069-15
 N3H             9.159-16
 *O              4.0989-4
 *OH             3.1634-3
 *O2             3.7776-2
 O3              8.491-10

  * THERMODYNAMIC PROPERTIES FITTED TO 20000.K









         THERMODYNAMIC EQUILIBRIUM COMBUSTION PROPERTIES AT ASSIGNED

                                   PRESSURES

 CASE =                

             REACTANT                       MOLES         ENERGY      TEMP
                                                         KJ/KG-MOL      K
 FUEL        C2H4                         1.0000000     52579.505    300.000
 OXIDANT     O2                           3.0000000        54.358    300.000
 OXIDANT     N2                          11.2857000        53.881    300.000

 O/F=   16.32406  %FUEL=  5.772320  R,EQ.RATIO= 0.900000  PHI,EQ.RATIO= 0.900000

 THERMODYNAMIC PROPERTIES

 P, BAR            1.0000
 T, K             2289.80
 RHO, KG/CU M    1.5028-1
 H, KJ/KG          109.95
 U, KJ/KG         -555.48
 G, KJ/KG        -21748.0
 S, KJ/(KG)(K)     9.5458

 M, (1/n)          28.611
 (dLV/dLP)t      -1.00281
 (dLV/dLT)p        1.0819
 Cp, KJ/(KG)(K)    2.1608
 GAMMAs            1.1829
 SON VEL,M/SEC      887.2

 MOLE FRACTIONS

 *CN             6.909-14
 *CO             8.2649-3
 *CO2            1.0948-1
 COOH            7.3703-9
 *H              3.6087-4
 HCN             7.201-12
 HCO             5.896-10
 HNC             5.828-13
 HNCO            1.515-10
 HNO             6.9461-8
 HNO2            4.4585-8
 HNO3            2.775-12
 HO2             1.5314-6
 *H2             1.5410-3
 HCHO,formaldehy 5.195-12
 HCOOH           3.556-10
 H2O             1.1367-1
 H2O2            7.1189-8
 *N              2.9930-8
 NCO             2.018-11
 *NH             2.6773-9
 NH2             6.267-10
 NH3             6.908-10
 NH2OH           1.572-13
 *NO             4.6685-3
 NO2             1.6762-6
 NO3             1.074-12
 *N2             7.3588-1
 N2H2            1.726-14
 N2O             2.5134-7
 N2O3            1.284-14
 N3              3.557-14
 N3H             4.123-15
 *O              6.7388-4
 *OH             4.7017-3
 *O2             2.0767-2
 O3              5.541-10

  * THERMODYNAMIC PROPERTIES FITTED TO 20000.K









         THERMODYNAMIC EQUILIBRIUM COMBUSTION PROPERTIES AT ASSIGNED

                                   PRESSURES

 CASE =                

             REACTANT                       MOLES         ENERGY      TEMP
                                                         KJ/KG-MOL      K
 FUEL        C2H4                         1.0000000     52579.505    300.000
 OXIDANT     O2                           3.0000000        54.358    300.000
 OXIDANT     N2                          11.2857000        53.881    300.000

 O/F=   14.69165  %FUEL=  6.372816  R,EQ.RATIO= 1.000000  PHI,EQ.RATIO= 1.000000

 THERMODYNAMIC PROPERTIES

 P, BAR            1.0000
 T, K             2367.91
 RHO, KG/CU M    1.4417-1
 H, KJ/KG          121.20
 U, KJ/KG         -572.42
 G, KJ/KG        -22774.8
 S, KJ/(KG)(K)     9.6693

 M, (1/n)          28.384
 (dLV/dLP)t      -1.00465
 (dLV/dLT)p        1.1310
 Cp, KJ/(KG)(K)    2.5629
 GAMMAs            1.1649
 SON VEL,M/SEC      898.9

 MOLE FRACTIONS

 *C              5.467-16
 CH2             1.033-16
 CH3             2.658-16
 CH2OH           1.650-16
 *CN             6.699-13
 *CO             2.0255-2
 *CO2            1.0871-1
 COOH            1.5880-8
 *H              8.5368-4
 HCN             6.588-11
 HCO             2.9955-9
 HNC             5.936-12
 HNCO            5.851-10
 HNO             8.6135-8
 HNO2            2.6551-8
 HNO3            9.930-13
 HO2             1.0582-6
 *H2             3.9134-3
 HCHO,formaldehy 3.229-11
 HCOOH           9.293-10
 H2O             1.2202-1
 H2O2            6.0577-8
 *N              6.8391-8
 NCO             7.612-11
 *NH             7.8701-9
 NH2             2.1767-9
 NH3             2.5265-9
 NH2OH           3.818-13
 *NO             3.5516-3
 NO2             7.5814-7
 NO3             3.441-13
 *N2             7.2593-1
 N2H2            6.310-14
 N2O             1.8979-7
 N2O3            4.235-15
 N3              7.529-14
 N3H             1.083-14
 *O              6.8637-4
 *OH             5.2010-3
 *O2             8.8769-3
 O3              2.018-10

  * THERMODYNAMIC PROPERTIES FITTED TO 20000.K









         THERMODYNAMIC EQUILIBRIUM COMBUSTION PROPERTIES AT ASSIGNED

                                   PRESSURES

 CASE =                

             REACTANT                       MOLES         ENERGY      TEMP
                                                         KJ/KG-MOL      K
 FUEL        C2H4                         1.0000000     52579.505    300.000
 OXIDANT     O2                           3.0000000        54.358    300.000
 OXIDANT     N2                          11.2857000        53.881    300.000

 O/F=   13.35605  %FUEL=  6.965706  R,EQ.RATIO= 1.100000  PHI,EQ.RATIO= 1.100000

 THERMODYNAMIC PROPERTIES

 P, BAR            1.0000
 T, K             2390.19
 RHO, KG/CU M    1.4113-1
 H, KJ/KG          132.30
 U, KJ/KG         -576.28
 G, KJ/KG        -23251.1
 S, KJ/(KG)(K)     9.7831

 M, (1/n)          28.046
 (dLV/dLP)t      -1.00389
 (dLV/dLT)p        1.1091
 Cp, KJ/(KG)(K)    2.3958
 GAMMAs            1.1741
 SON VEL,M/SEC      912.1

 MOLE FRACTIONS

 *C              2.833-15
 *CH             4.129-16
 CH2             9.821-16
 CH3             3.297-15
 CH2OH           1.040-15
 CH3O            1.532-16
 CH4             1.094-15
 *CN             3.008-12
 *CO             3.8813-2
 *CO2            1.0047-1
 COOH            2.3418-8
 C2O             3.444-16
 *H              1.3948-3
 HCN             3.759-10
 HCO             9.0454-9
 HNC             3.488-11
 HNCO            1.6285-9
 HNO             7.2336-8
 HNO2            1.1263-8
 HNO3            2.263-13
 HO2             4.7068-7
 *H2             8.4167-3
 HCHO,formaldehy 1.330-10
 HCOOH           1.8657-9
 H2O             1.2804-1
 H2O2            3.6826-8
 *N              8.5142-8
 NCO             1.630-10
 *NH             1.3552-8
 NH2             5.0655-9
 NH3             7.7001-9
 NH2OH           6.423-13
 *NO             2.0207-3
 NO2             2.3102-7
 NO3             5.891-14
 *N2             7.1348-1
 N2H2            1.480-13
 N2O             1.0705-7
 N2O3            7.259-16
 N3              9.056-14
 N3H             1.785-14
 *O              4.2584-4
 *OH             4.2613-3
 *O2             2.6815-3
 O3              3.604-11

  * THERMODYNAMIC PROPERTIES FITTED TO 20000.K









         THERMODYNAMIC EQUILIBRIUM COMBUSTION PROPERTIES AT ASSIGNED

                                   PRESSURES

 CASE =                

             REACTANT                       MOLES         ENERGY      TEMP
                                                         KJ/KG-MOL      K
 FUEL        C2H4                         1.0000000     52579.505    300.000
 OXIDANT     O2                           3.0000000        54.358    300.000
 OXIDANT     N2                          11.2857000        53.881    300.000

 O/F=   12.24304  %FUEL=  7.551135  R,EQ.RATIO= 1.200000  PHI,EQ.RATIO= 1.200000

 THERMODYNAMIC PROPERTIES

 P, BAR            1.0000
 T, K             2363.99
 RHO, KG/CU M    1.4052-1
 H, KJ/KG          143.26
 U, KJ/KG         -568.38
 G, KJ/KG        -23232.5
 S, KJ/(KG)(K)     9.8883

 M, (1/n)          27.620
 (dLV/dLP)t      -1.00200
 (dLV/dLT)p        1.0562
 Cp, KJ/(KG)(K)    1.9707
 GAMMAs            1.2025
 SON VEL,M/SEC      925.1

 MOLE FRACTIONS

 *C              5.944-15
 *CH             1.273-15
 CH2             4.670-15
 CH3             2.465-14
 CH2OH           4.026-15
 CH3O            5.787-16
 CH4             1.265-14
 CH3OH           3.393-16
 *CN             7.319-12
 *CO             6.1310-2
 *CO2            8.7382-2
 COOH            2.5278-8
 CH2CO,ketene    2.514-16
 OCCN            1.428-16
 C2O             1.356-15
 *H              1.6835-3
 HCN             1.4840-9
 HCO             1.7995-8
 HNC             1.330-10
 HNCO            3.4935-9
 HNO             4.3693-8
 HNO2            3.5476-9
 HNO3            3.457-14
 HO2             1.4313-7
 *H2             1.5814-2
 HCHO,formaldehy 3.949-10
 HCOOH           3.0135-9
 H2O             1.3068-1
 H2O2            1.6678-8
 *N              6.4439-8
 NCO             2.213-10
 *NH             1.5062-8
 NH2             8.4969-9
 NH3             2.0229-8
 NH2OH           7.925-13
 *NO             8.9723-4
 NO2             4.9926-8
 NO3             5.856-15
 *N2             6.9875-1
 N2H2            2.410-13
 N2O             4.7040-8
 N3              6.849-14
 N3H             2.005-14
 *O              1.7431-4
 *OH             2.7050-3
 *O2             5.9768-4
 O3              3.481-12

  * THERMODYNAMIC PROPERTIES FITTED TO 20000.K









         THERMODYNAMIC EQUILIBRIUM COMBUSTION PROPERTIES AT ASSIGNED

                                   PRESSURES

 CASE =                

             REACTANT                       MOLES         ENERGY      TEMP
                                                         KJ/KG-MOL      K
 FUEL        C2H4                         1.0000000     52579.505    300.000
 OXIDANT     O2                           3.0000000        54.358    300.000
 OXIDANT     N2                          11.2857000        53.881    300.000

 O/F=   11.30127  %FUEL=  8.129242  R,EQ.RATIO= 1.300000  PHI,EQ.RATIO= 1.300000

 THERMODYNAMIC PROPERTIES

 P, BAR            1.0000
 T, K             2312.45
 RHO, KG/CU M    1.4126-1
 H, KJ/KG          154.08
 U, KJ/KG         -553.85
 G, KJ/KG        -22937.7
 S, KJ/(KG)(K)     9.9859

 M, (1/n)          27.159
 (dLV/dLP)t      -1.00106
 (dLV/dLT)p        1.0294
 Cp, KJ/(KG)(K)    1.7520
 GAMMAs            1.2256
 SON VEL,M/SEC      931.5

 MOLE FRACTIONS

 *C              6.913-15
 *CH             2.185-15
 CH2             1.309-14
 CH3             1.172-13
 CH2OH           1.047-14
 CH3O            1.432-15
 CH4             9.869-14
 CH3OH           1.398-15
 *CN             1.162-11
 *CO             8.3537-2
 *CO2            7.3867-2
 COOH            2.2399-8
 CH2CO,ketene    1.377-15
 OCCN            3.481-16
 C2O             3.051-15
 *H              1.6676-3
 HCN             4.2582-9
 HCO             2.6481-8
 HCCO            2.130-16
 HNC             3.558-10
 HNCO            6.0533-9
 HNO             2.2330-8
 HNO2            1.0065-9
 HNO3            4.702-15
 HO2             3.7429-8
 *H2             2.6026-2
 HCHO,formaldehy 8.864-10
 HCOOH           4.0955-9
 H2O             1.2979-1
 H2O2            6.6233-9
 *N              3.6929-8
 NCO             2.238-10
 *NH             1.2740-8
 NH2             1.1214-8
 NH3             4.4915-8
 NH2OH           7.900-13
 *NO             3.6279-4
 NO2             9.7448-9
 NO3             4.920-16
 *N2             6.8306-1
 NCN             1.239-16
 N2H2            3.027-13
 N2O             1.8813-8
 N3              3.998-14
 N3H             1.768-14
 *O              5.9154-5
 *OH             1.5136-3
 *O2             1.2298-4
 O3              2.731-13

  * THERMODYNAMIC PROPERTIES FITTED TO 20000.K









         THERMODYNAMIC EQUILIBRIUM COMBUSTION PROPERTIES AT ASSIGNED

                                   PRESSURES

 CASE =                

             REACTANT                       MOLES         ENERGY      TEMP
                                                         KJ/KG-MOL      K
 FUEL        C2H4                         1.0000000     52579.505    300.000
 OXIDANT     O2                           3.0000000        54.358    300.000
 OXIDANT     N2                          11.2857000        53.881    300.000

 O/F=   10.49404  %FUEL=  8.700164  R,EQ.RATIO= 1.400000  PHI,EQ.RATIO= 1.400000

 THERMODYNAMIC PROPERTIES

 P, BAR            1.0000
 T, K             2252.94
 RHO, KG/CU M    1.4254-1
 H, KJ/KG          164.77
 U, KJ/KG         -536.80
 G, KJ/KG        -22538.0
 S, KJ/(KG)(K)    10.0770

 M, (1/n)          26.700
 (dLV/dLP)t      -1.00066
 (dLV/dLT)p        1.0179
 Cp, KJ/(KG)(K)    1.6621
 GAMMAs            1.2399
 SON VEL,M/SEC      932.7

 MOLE FRACTIONS

 *C              5.826-15
 *CH             2.654-15
 CH2             2.585-14
 CH3             3.945-13
 CH2OH           2.058-14
 CH3O            2.654-15
 CH4             5.448-13
 CH3OH           4.316-15
 *CN             1.430-11
 *CO             1.0341-1
 *CO2            6.2205-2
 COOH            1.7946-8
 C2H2,acetylene  3.043-16
 CH2CO,ketene    5.216-15
 OCCN            6.138-16
 C2O             4.868-15
 *H              1.4818-3
 HCN             9.6553-9
 HCO             3.2339-8
 HCCO            4.852-16
 HNC             7.410-10
 HNCO            9.0335-9
 HNO             1.0821-8
 HNO2            2.898-10
 HNO3            6.737-16
 HO2             9.7389-9
 *H2             3.8433-2
 HCHO,formaldehy 1.6226-9
 HCOOH           4.9529-9
 H2O             1.2603-1
 H2O2            2.5694-9
 *N              1.8858-8
 NCO             1.935-10
 *NH             9.3672-9
 NH2             1.2703-8
 NH3             8.5885-8
 NH2OH           6.948-13
 *NO             1.4719-4
 NO2             1.9842-9
 *N2             6.6744-1
 NCN             1.362-16
 N2H2            3.240-13
 N2O             7.5522-9
 N3              2.097-14
 N3H             1.374-14
 *O              1.9371-5
 *OH             8.1619-4
 *O2             2.6633-5
 O3              2.233-14

  * THERMODYNAMIC PROPERTIES FITTED TO 20000.K









         THERMODYNAMIC EQUILIBRIUM COMBUSTION PROPERTIES AT ASSIGNED

                                   PRESSURES

 CASE =                

             REACTANT                       MOLES         ENERGY      TEMP
                                                         KJ/KG-MOL      K
 FUEL        C2H4                         1.0000000     52579.505    300.000
 OXIDANT     O2                           3.0000000        54.358    300.000
 OXIDANT     N2                          11.2857000        53.881    300.000

 O/F=    9.79443  %FUEL=  9.264034  R,EQ.RATIO= 1.500000  PHI,EQ.RATIO= 1.500000

 THERMODYNAMIC PROPERTIES

 P, BAR            1.0000
 T, K             2192.05
 RHO, KG/CU M    1.4405-1
 H, KJ/KG          175.33
 U, KJ/KG         -518.86
 G, KJ/KG        -22101.4
 S, KJ/(KG)(K)    10.1625

 M, (1/n)          26.255
 (dLV/dLP)t      -1.00044
 (dLV/dLT)p        1.0120
 Cp, KJ/(KG)(K)    1.6213
 GAMMAs            1.2494
 SON VEL,M/SEC      931.3

 MOLE FRACTIONS

 *C              4.085-15
 *CH             2.612-15
 CH2             4.066-14
 CH3             1.044-12
 CH2OH           3.353-14
 CH3O            4.057-15
 CH4             2.329-12
 CH3OH           1.083-14
 *CN             1.511-11
 *CO             1.2069-1
 *CO2            5.2712-2
 COOH            1.3634-8
 C2H2,acetylene  1.229-15
 CH2CO,ketene    1.538-14
 OCCN            8.862-16
 C2O             6.306-15
 *H              1.2343-3
 HCN             1.8659-8
 HCO             3.5196-8
 HCCO            8.729-16
 HNC             1.3061-9
 HNCO            1.2224-8
 HNO             5.1604-9
 HNO2            8.662-11
 HNO3            1.043-16
 HO2             2.6064-9
 *H2             5.2393-2
 HCHO,formaldehy 2.5869-9
 HCOOH           5.5550-9
 H2O             1.2017-1
 H2O2            1.0012-9
 *N              9.1412-9
 NCO             1.536-10
 *NH             6.3656-9
 NH2             1.3022-8
 NH3             1.4659-7
 NH2OH           5.644-13
 *NO             6.1205-5
 NO2             4.312-10
 *N2             6.5229-1
 NCN             1.276-16
 N2H2            3.131-13
 N2O             3.1095-9
 N3              1.049-14
 N3H             9.942-15
 *O              6.3861-6
 *OH             4.3598-4
 *O2             6.1791-6
 O3              1.995-15

  * THERMODYNAMIC PROPERTIES FITTED TO 20000.K









         THERMODYNAMIC EQUILIBRIUM COMBUSTION PROPERTIES AT ASSIGNED

                                   PRESSURES

 CASE =                

             REACTANT                       MOLES         ENERGY      TEMP
                                                         KJ/KG-MOL      K
 FUEL        C2H4                         1.0000000     52579.505    300.000
 OXIDANT     O2                           3.0000000        54.358    300.000
 OXIDANT     N2                          11.2857000        53.881    300.000

 O/F=    9.18228  %FUEL=  9.820981  R,EQ.RATIO= 1.600000  PHI,EQ.RATIO= 1.600000

 THERMODYNAMIC PROPERTIES

 P, BAR            1.0000
 T, K             2131.84
 RHO, KG/CU M    1.4570-1
 H, KJ/KG          185.76
 U, KJ/KG         -500.58
 G, KJ/KG        -21651.1
 S, KJ/(KG)(K)    10.2432

 M, (1/n)          25.826
 (dLV/dLP)t      -1.00031
 (dLV/dLT)p        1.0085
 Cp, KJ/(KG)(K)    1.6005
 GAMMAs            1.2567
 SON VEL,M/SEC      928.7

 MOLE FRACTIONS

 *C              2.541-15
 *CH             2.233-15
 CH2             5.471-14
 CH3             2.334-12
 CH2OH           4.792-14
 CH3O            5.431-15
 CH4             8.293-12
 CH3OH           2.345-14
 *CN             1.444-11
 *CO             1.3575-1
 *CO2            4.5078-2
 COOH            1.0030-8
 C2H2,acetylene  3.994-15
 CH2CO,ketene    3.820-14
 OCCN            1.124-15
 C2N2            1.254-16
 C2O             7.134-15
 *H              9.8368-4
 HCN             3.2319-8
 HCO             3.5488-8
 HCCO            1.342-15
 HNC             2.0547-9
 HNCO            1.5491-8
 HNO             2.4411-9
 HNO2            2.669-11
 HO2             7.149-10
 *H2             6.7336-2
 HCHO,formaldehy 3.7494-9
 HCOOH           5.9236-9
 H2O             1.1288-1
 H2O2            3.921-10
 *N              4.2933-9
 NCO             1.156-10
 *NH             4.1025-9
 NH2             1.2436-8
 NH3             2.2998-7
 NH2OH           4.331-13
 *NO             2.5997-5
 NO2             9.877-11
 *N2             6.3771-1
 NCN             1.076-16
 N2H2            2.817-13
 N2O             1.3089-9
 N3              5.100-15
 N3H             6.853-15
 *O              2.1272-6
 *OH             2.3180-4
 *O2             1.5138-6
 O3              1.917-16

  * THERMODYNAMIC PROPERTIES FITTED TO 20000.K









         THERMODYNAMIC EQUILIBRIUM COMBUSTION PROPERTIES AT ASSIGNED

                                   PRESSURES

 CASE =                

             REACTANT                       MOLES         ENERGY      TEMP
                                                         KJ/KG-MOL      K
 FUEL        C2H4                         1.0000000     52579.505    300.000
 OXIDANT     O2                           3.0000000        54.358    300.000
 OXIDANT     N2                          11.2857000        53.881    300.000

 O/F=    8.64215  %FUEL= 10.371134  R,EQ.RATIO= 1.700000  PHI,EQ.RATIO= 1.700000

 THERMODYNAMIC PROPERTIES

 P, BAR            1.0000
 T, K             2072.93
 RHO, KG/CU M    1.4745-1
 H, KJ/KG          196.06
 U, KJ/KG         -482.12
 G, KJ/KG        -21195.5
 S, KJ/(KG)(K)    10.3195

 M, (1/n)          25.414
 (dLV/dLP)t      -1.00022
 (dLV/dLT)p        1.0061
 Cp, KJ/(KG)(K)    1.5893
 GAMMAs            1.2629
 SON VEL,M/SEC      925.5

 MOLE FRACTIONS

 *C              1.449-15
 *CH             1.724-15
 CH2             6.577-14
 CH3             4.621-12
 CH2OH           6.229-14
 CH3O            6.601-15
 CH4             2.591-11
 CH3OH           4.566-14
 *CN             1.285-11
 *CO             1.4902-1
 *CO2            3.8894-2
 COOH            7.2134-9
 C2H2,acetylene  1.116-14
 CH2CO,ketene    8.425-14
 OCCN            1.303-15
 C2N2            2.405-16
 C2O             7.348-15
 C3O2            1.172-16
 *H              7.5774-4
 HCN             5.1841-8
 HCO             3.3888-8
 HCCO            1.849-15
 HNC             2.9832-9
 HNCO            1.8760-8
 HNO             1.1447-9
 HNO2            8.378-12
 HO2             1.987-10
 *H2             8.2803-2
 HCHO,formaldehy 5.0777-9
 HCOOH           6.0952-9
 H2O             1.0467-1
 H2O2            1.534-10
 *N              1.9660-9
 NCO             8.384-11
 *NH             2.5378-9
 NH2             1.1256-8
 NH3             3.3887-7
 NH2OH           3.179-13
 *NO             1.1188-5
 NO2             2.341-11
 *N2             6.2373-1
 N2H2            2.401-13
 N2O             5.588-10
 N3              2.424-15
 N3H             4.553-15
 *O              7.1160-7
 *OH             1.2247-4
 *O2             3.8431-7

  * THERMODYNAMIC PROPERTIES FITTED TO 20000.K









         THERMODYNAMIC EQUILIBRIUM COMBUSTION PROPERTIES AT ASSIGNED

                                   PRESSURES

 CASE =                

             REACTANT                       MOLES         ENERGY      TEMP
                                                         KJ/KG-MOL      K
 FUEL        C2H4                         1.0000000     52579.505    300.000
 OXIDANT     O2                           3.0000000        54.358    300.000
 OXIDANT     N2                          11.2857000        53.881    300.000

 O/F=    8.16203  %FUEL= 10.914614  R,EQ.RATIO= 1.800000  PHI,EQ.RATIO= 1.800000

 THERMODYNAMIC PROPERTIES

 P, BAR            1.0000
 T, K             2015.47
 RHO, KG/CU M    1.4930-1
 H, KJ/KG          206.24
 U, KJ/KG         -463.56
 G, KJ/KG        -20737.9
 S, KJ/(KG)(K)    10.3917

 M, (1/n)          25.019
 (dLV/dLP)t      -1.00016
 (dLV/dLT)p        1.0044
 Cp, KJ/(KG)(K)    1.5832
 GAMMAs            1.2684
 SON VEL,M/SEC      921.7

 MOLE FRACTIONS

 *C              7.724-16
 *CH             1.230-15
 CH2             7.263-14
 CH3             8.370-12
 CH2OH           7.538-14
 CH3O            7.461-15
 CH4             7.376-11
 CH3OH           8.221-14
 *CN             1.083-11
 *CO             1.6088-1
 *CO2            3.3802-2
 COOH            5.0917-9
 C2H2,acetylene  2.797-14
 CH2CO,ketene    1.708-13
 OCCN            1.417-15
 C2N2            4.263-16
 C2O             7.068-15
 C3O2            1.879-16
 *H              5.6753-4
 HCN             7.8735-8
 HCO             3.1059-8
 HCCO            2.353-15
 HNC             4.0878-9
 HNCO            2.1992-8
 HNO             5.305-10
 HNO2            2.646-12
 HO2             5.529-11
 *H2             9.8449-2
 HCHO,formaldehy 6.5431-9
 HCOOH           6.1063-9
 H2O             9.5918-2
 H2O2            5.958-11
 *N              8.789-10
 NCO             5.909-11
 *NH             1.5162-9
 NH2             9.7620-9
 NH3             4.7627-7
 NH2OH           2.248-13
 *NO             4.8376-6
 NO2             5.643-12
 *N2             6.1031-1
 N2H2            1.961-13
 N2O             2.399-10
 N3              1.128-15
 N3H             2.933-15
 *O              2.3720-7
 *OH             6.4100-5
 *O2             9.9389-8

  * THERMODYNAMIC PROPERTIES FITTED TO 20000.K









         THERMODYNAMIC EQUILIBRIUM COMBUSTION PROPERTIES AT ASSIGNED

                                   PRESSURES

 CASE =                

             REACTANT                       MOLES         ENERGY      TEMP
                                                         KJ/KG-MOL      K
 FUEL        C2H4                         1.0000000     52579.505    300.000
 OXIDANT     O2                           3.0000000        54.358    300.000
 OXIDANT     N2                          11.2857000        53.881    300.000

 O/F=    7.73245  %FUEL= 11.451543  R,EQ.RATIO= 1.900000  PHI,EQ.RATIO= 1.900000

 THERMODYNAMIC PROPERTIES

 P, BAR            1.0000
 T, K             1959.46
 RHO, KG/CU M    1.5124-1
 H, KJ/KG          216.29
 U, KJ/KG         -444.91
 G, KJ/KG        -20279.8
 S, KJ/(KG)(K)    10.4601

 M, (1/n)          24.640
 (dLV/dLP)t      -1.00011
 (dLV/dLT)p        1.0032
 Cp, KJ/(KG)(K)    1.5804
 GAMMAs            1.2735
 SON VEL,M/SEC      917.6

 MOLE FRACTIONS

 *C              3.889-16
 *CH             8.242-16
 CH2             7.512-14
 CH3             1.420-11
 CH2OH           8.633-14
 CH3O            7.968-15
 CH4             1.965-10
 CH3OH           1.397-13
 *CN             8.761-12
 *CO             1.7164-1
 *CO2            2.9521-2
 COOH            3.5323-9
 C2H2,acetylene  6.498-14
 CH2CO,ketene    3.261-13
 OCCN            1.470-15
 C2N2            7.161-16
 C2O             6.454-15
 C3O2            2.866-16
 *H              4.1479-4
 HCN             1.1502-7
 HCO             2.7552-8
 HCCO            2.824-15
 HNC             5.3698-9
 HNCO            2.5171-8
 HNO             2.421-10
 HNO2            8.316-13
 HO2             1.524-11
 *H2             1.1403-1
 HCHO,formaldehy 8.1220-9
 HCOOH           5.9873-9
 H2O             8.6908-2
 H2O2            2.279-11
 *N              3.835-10
 NCO             4.066-11
 *NH             8.779-10
 NH2             8.1722-9
 NH3             6.4581-7
 NH2OH           1.537-13
 *NO             2.0863-6
 NO2             1.364-12
 *N2             5.9744-1
 N2H2            1.546-13
 N2O             1.028-10
 N3              5.132-16
 N3H             1.839-15
 *O              7.8187-8
 *OH             3.3111-5
 *O2             2.5800-8

  * THERMODYNAMIC PROPERTIES FITTED TO 20000.K









         THERMODYNAMIC EQUILIBRIUM COMBUSTION PROPERTIES AT ASSIGNED

                                   PRESSURES

 CASE =                

             REACTANT                       MOLES         ENERGY      TEMP
                                                         KJ/KG-MOL      K
 FUEL        C2H4                         1.0000000     52579.505    300.000
 OXIDANT     O2                           3.0000000        54.358    300.000
 OXIDANT     N2                          11.2857000        53.881    300.000

 O/F=    7.34583  %FUEL= 11.982038  R,EQ.RATIO= 2.000000  PHI,EQ.RATIO= 2.000000

 THERMODYNAMIC PROPERTIES

 P, BAR            1.0000
 T, K             1904.83
 RHO, KG/CU M    1.5328-1
 H, KJ/KG          226.22
 U, KJ/KG         -426.18
 G, KJ/KG        -19822.1
 S, KJ/(KG)(K)    10.5250

 M, (1/n)          24.276
 (dLV/dLP)t      -1.00008
 (dLV/dLT)p        1.0023
 Cp, KJ/(KG)(K)    1.5797
 GAMMAs            1.2783
 SON VEL,M/SEC      913.2

 MOLE FRACTIONS

 *C              1.864-16
 *CH             5.238-16
 CH2             7.379-14
 CH3             2.295-11
 CH2OH           9.461-14
 CH3O            8.131-15
 CH4             5.001-10
 CH3OH           2.272-13
 *CN             6.850-12
 *CO             1.8153-1
 *CO2            2.5841-2
 COOH            2.4076-9
 C2H2,acetylene  1.432-13
 CH2CO,ketene    5.969-13
 CH3CN           1.883-16
 C2H4            2.217-16
 OCCN            1.470-15
 C2N2            1.160-15
 C2O             5.661-15
 C3O2            4.226-16
 *H              2.9648-4
 HCN             1.6352-7
 HCO             2.3788-8
 HCCO            3.241-15
 HNC             6.8412-9
 HNCO            2.8294-8
 HNO             1.083-10
 HNO2            2.576-13
 HO2             4.118-12
 *H2             1.2939-1
 HCHO,formaldehy 9.7966-9
 HCOOH           5.7625-9
 H2O             7.7829-2
 H2O2            8.530-12
 *N              1.631-10
 NCO             2.738-11
 *NH             4.936-10
 NH2             6.6374-9
 NH3             8.5201-7
 NH2OH           1.018-13
 *NO             8.9136-7
 NO2             3.260-13
 *N2             5.8509-1
 N2H2            1.182-13
 N2O             4.371-11
 N3              2.284-16
 N3H             1.124-15
 *O              2.5307-8
 *OH             1.6817-5
 *O2             6.6366-9

  * THERMODYNAMIC PROPERTIES FITTED TO 20000.K



