
 *******************************************************************************

         NASA-GLENN CHEMICAL EQUILIBRIUM PROGRAM CEA2, MAY 21, 2004
                   BY  BONNIE MCBRIDE AND SANFORD GORDON
      REFS: NASA RP-1311, PART I, 1994 AND NASA RP-1311, PART II, 1996

 *******************************************************************************



 problem    phi,eq.ratio=2.1,2.2,2.3,2.4,2.5,2.6,2.7,2.8,2.9,3,3.1,3.2,3.3,3.4,3.
 5,3.6,
       hp   p,bar=1,  t,k=3800
 react
   fuel=C2H6 moles=1 t,k=300
   oxid=O2 moles=3.5 t,k=300
   oxid=N2 moles=13.1667 t,k=300
 output
      trace=1e-16 siunits short
 end




         THERMODYNAMIC EQUILIBRIUM COMBUSTION PROPERTIES AT ASSIGNED

                                   PRESSURES

 CASE =                

             REACTANT                       MOLES         ENERGY      TEMP
                                                         KJ/KG-MOL      K
 FUEL        C2H6                         1.0000000    -83754.210    300.000
 OXIDANT     O2                           3.5000000        54.358    300.000
 OXIDANT     N2                          13.1667000        53.881    300.000

 O/F=    7.61485  %FUEL= 11.607858  R,EQ.RATIO= 2.100000  PHI,EQ.RATIO= 2.100000

 THERMODYNAMIC PROPERTIES

 P, BAR            1.0000
 T, K             1563.95
 RHO, KG/CU M    1.7676-1
 H, KJ/KG         -321.67
 U, KJ/KG         -887.41
 G, KJ/KG        -17043.6
 S, KJ/(KG)(K)    10.6921

 M, (1/n)          22.985
 (dLV/dLP)t      -1.00001
 (dLV/dLT)p        1.0002
 Cp, KJ/(KG)(K)    1.6202
 GAMMAs            1.2875
 SON VEL,M/SEC      853.5

 MOLE FRACTIONS

 CH2             3.147-15
 CH3             3.429-11
 CH2OH           3.738-14
 CH3O            1.881-15
 CH4             1.8974-8
 CH3OH           1.415-12
 *CN             1.029-13
 *CO             1.5015-1
 *CO2            2.7315-2
 COOH            2.558-10
 C2H2,acetylene  3.359-13
 CH2CO,ketene    1.810-12
 CH3CN           4.996-15
 C2H4            9.178-15
 CH3CHO,ethanal  3.566-16
 C2N2            5.476-16
 C2O             1.072-16
 C3O2            2.547-16
 *H              1.5424-5
 HCN             1.8876-7
 HCO             2.8714-9
 HCCO            3.573-16
 HNC             3.3428-9
 HNCO            2.8765-8
 HNO             8.516-13
 HNO2            6.281-16
 HO2             3.223-15
 *H2             1.7519-1
 HCHO,formaldehy 1.1575-8
 HCOOH           6.5943-9
 H2O             9.0994-2
 H2O2            6.069-14
 *N              2.176-13
 NCO             7.150-13
 *NH             4.117-12
 NH2             6.979-10
 NH3             2.8318-6
 NH2OH           8.793-15
 *NO             6.7516-9
 NO2             1.468-16
 *N2             5.5633-1
 N2H2            8.498-15
 N2O             3.425-13
 *O              2.080-11
 *OH             3.2920-7
 *O2             4.970-12

  * THERMODYNAMIC PROPERTIES FITTED TO 20000.K









         THERMODYNAMIC EQUILIBRIUM COMBUSTION PROPERTIES AT ASSIGNED

                                   PRESSURES

 CASE =                

             REACTANT                       MOLES         ENERGY      TEMP
                                                         KJ/KG-MOL      K
 FUEL        C2H6                         1.0000000    -83754.210    300.000
 OXIDANT     O2                           3.5000000        54.358    300.000
 OXIDANT     N2                          13.1667000        53.881    300.000

 O/F=    7.26872  %FUEL= 12.093764  R,EQ.RATIO= 2.200000  PHI,EQ.RATIO= 2.200000

 THERMODYNAMIC PROPERTIES

 P, BAR            1.0000
 T, K             1503.90
 RHO, KG/CU M    1.8101-1
 H, KJ/KG         -335.21
 U, KJ/KG         -887.66
 G, KJ/KG        -16496.9
 S, KJ/(KG)(K)    10.7465

 M, (1/n)          22.634
 (dLV/dLP)t      -1.00001
 (dLV/dLT)p        1.0001
 Cp, KJ/(KG)(K)    1.6281
 GAMMAs            1.2914
 SON VEL,M/SEC      844.7

 MOLE FRACTIONS

 CH2             2.025-15
 CH3             4.931-11
 CH2OH           3.408-14
 CH3O            1.528-15
 CH4             5.6975-8
 CH3OH           2.416-12
 *CN             5.112-14
 *CO             1.5636-1
 *CO2            2.5708-2
 COOH            1.457-10
 C2H2,acetylene  6.762-13
 CH2CO,ketene    3.293-12
 CH3CN           1.741-14
 CH3CO,acetyl    1.230-16
 C2H4            3.582-14
 CH3CHO,ethanal  1.039-15
 C2N2            7.499-16
 C3O2            3.454-16
 *H              8.0753-6
 HCN             2.5023-7
 HCO             1.9674-9
 HCCO            3.068-16
 HNC             3.6566-9
 HNCO            3.1625-8
 HNO             2.484-13
 HNO2            1.204-16
 HO2             4.803-16
 *H2             1.9121-1
 HCHO,formaldehy 1.3348-8
 HCOOH           6.4749-9
 H2O             8.1878-2
 H2O2            1.496-14
 *N              4.953-14
 NCO             3.440-13
 *NH             1.423-12
 NH2             4.287-10
 NH3             3.7982-6
 NH2OH           4.479-15
 *NO             1.9283-9
 *N2             5.4483-1
 N2H2            4.803-15
 N2O             9.845-14
 *O              3.643-12
 *OH             1.1784-7
 *O2             7.262-13

  * THERMODYNAMIC PROPERTIES FITTED TO 20000.K









         THERMODYNAMIC EQUILIBRIUM COMBUSTION PROPERTIES AT ASSIGNED

                                   PRESSURES

 CASE =                

             REACTANT                       MOLES         ENERGY      TEMP
                                                         KJ/KG-MOL      K
 FUEL        C2H6                         1.0000000    -83754.210    300.000
 OXIDANT     O2                           3.5000000        54.358    300.000
 OXIDANT     N2                          13.1667000        53.881    300.000

 O/F=    6.95269  %FUEL= 12.574357  R,EQ.RATIO= 2.300000  PHI,EQ.RATIO= 2.300000

 THERMODYNAMIC PROPERTIES

 P, BAR            1.0000
 T, K             1445.39
 RHO, KG/CU M    1.8554-1
 H, KJ/KG         -348.61
 U, KJ/KG         -887.59
 G, KJ/KG        -15954.2
 S, KJ/(KG)(K)    10.7968

 M, (1/n)          22.297
 (dLV/dLP)t      -1.00001
 (dLV/dLT)p        1.0001
 Cp, KJ/(KG)(K)    1.6360
 GAMMAs            1.2953
 SON VEL,M/SEC      835.5

 MOLE FRACTIONS

 CH2             1.232-15
 CH3             6.956-11
 CH2OH           3.008-14
 CH3O            1.197-15
 CH4             1.7364-7
 CH3OH           4.105-12
 *CN             2.406-14
 *CO             1.6221-1
 *CO2            2.4279-2
 COOH            8.041-11
 C2H2,acetylene  1.348-12
 CH2CO,ketene    5.966-12
 CH3CN           6.151-14
 CH3CO,acetyl    2.052-16
 C2H4            1.414-13
 CH3CHO,ethanal  3.054-15
 CH3COOH         2.187-16
 C2H6            3.939-16
 C2N2            1.012-15
 C3O2            4.637-16
 *H              4.0563-6
 HCN             3.2906-7
 HCO             1.3036-9
 HCCO            2.537-16
 HNC             3.9262-9
 HNCO            3.4549-8
 HNO             6.817-14
 *H2             2.0670-1
 HCHO,formaldehy 1.5209-8
 HCOOH           6.3128-9
 H2O             7.3019-2
 H2O2            3.448-15
 *N              1.042-14
 NCO             1.584-13
 *NH             4.610-13
 NH2             2.530-10
 NH3             5.0697-6
 NH2OH           2.183-15
 *NO             5.211-10
 *N2             5.3378-1
 N2H2            2.603-15
 N2O             2.683-14
 *O              5.875-13
 *OH             4.0069-8
 *O2             9.786-14

  * THERMODYNAMIC PROPERTIES FITTED TO 20000.K









         THERMODYNAMIC EQUILIBRIUM COMBUSTION PROPERTIES AT ASSIGNED

                                   PRESSURES

 CASE =                

             REACTANT                       MOLES         ENERGY      TEMP
                                                         KJ/KG-MOL      K
 FUEL        C2H6                         1.0000000    -83754.210    300.000
 OXIDANT     O2                           3.5000000        54.358    300.000
 OXIDANT     N2                          13.1667000        53.881    300.000

 O/F=    6.66300  %FUEL= 13.049724  R,EQ.RATIO= 2.400000  PHI,EQ.RATIO= 2.400000

 THERMODYNAMIC PROPERTIES

 P, BAR            1.0000
 T, K             1388.33
 RHO, KG/CU M    1.9036-1
 H, KJ/KG         -361.86
 U, KJ/KG         -887.18
 G, KJ/KG        -15415.4
 S, KJ/(KG)(K)    10.8430

 M, (1/n)          21.974
 (dLV/dLP)t      -1.00001
 (dLV/dLT)p        1.0001
 Cp, KJ/(KG)(K)    1.6436
 GAMMAs            1.2991
 SON VEL,M/SEC      826.1

 MOLE FRACTIONS

 CH2             7.099-16
 CH3             9.683-11
 CH2OH           2.576-14
 CH3O            9.041-16
 CH4             5.4268-7
 CH3OH           6.980-12
 *CN             1.070-14
 *CO             1.6776-1
 *CO2            2.2972-2
 COOH            4.287-11
 C2H2,acetylene  2.684-12
 CH2CO,ketene    1.084-11
 CH3CN           2.232-13
 CH3CO,acetyl    3.399-16
 C2H4            5.728-13
 CH3CHO,ethanal  9.143-15
 CH3COOH         5.564-16
 C2H6            2.789-15
 C2N2            1.356-15
 C3O2            6.197-16
 *H              1.9494-6
 HCN             4.3119-7
 HCO             8.345-10
 HCCO            2.025-16
 HNC             4.1527-9
 HNCO            3.7567-8
 HNO             1.747-14
 *H2             2.2164-1
 HCHO,formaldehy 1.7163-8
 HCOOH           6.1106-9
 H2O             6.4447-2
 H2O2            7.363-16
 *N              2.010-15
 NCO             6.961-14
 *NH             1.394-13
 NH2             1.432-10
 NH3             6.7552-6
 NH2OH           1.014-15
 *NO             1.321-10
 *N2             5.2318-1
 N2H2            1.351-15
 N2O             6.878-15
 *O              8.630-14
 *OH             1.2854-8
 *O2             1.200-14

  * THERMODYNAMIC PROPERTIES FITTED TO 20000.K









         THERMODYNAMIC EQUILIBRIUM COMBUSTION PROPERTIES AT ASSIGNED

                                   PRESSURES

 CASE =                

             REACTANT                       MOLES         ENERGY      TEMP
                                                         KJ/KG-MOL      K
 FUEL        C2H6                         1.0000000    -83754.210    300.000
 OXIDANT     O2                           3.5000000        54.358    300.000
 OXIDANT     N2                          13.1667000        53.881    300.000

 O/F=    6.39648  %FUEL= 13.519949  R,EQ.RATIO= 2.500000  PHI,EQ.RATIO= 2.500000

 THERMODYNAMIC PROPERTIES

 P, BAR            1.0000
 T, K             1332.61
 RHO, KG/CU M    1.9551-1
 H, KJ/KG         -374.97
 U, KJ/KG         -886.44
 G, KJ/KG        -14880.6
 S, KJ/(KG)(K)    10.8851

 M, (1/n)          21.663
 (dLV/dLP)t      -1.00002
 (dLV/dLT)p        1.0001
 Cp, KJ/(KG)(K)    1.6510
 GAMMAs            1.3030
 SON VEL,M/SEC      816.3

 MOLE FRACTIONS

 CH2             3.872-16
 CH3             1.337-10
 CH2OH           2.141-14
 CH3O            6.592-16
 CH4             1.7568-6
 CH3OH           1.194-11
 *CN             4.493-15
 *CO             1.7307-1
 *CO2            2.1739-2
 COOH            2.198-11
 C2H2,acetylene  5.392-12
 CH2CO,ketene    1.992-11
 CH3CN           8.433-13
 CH3CO,acetyl    5.632-16
 C2H4            2.414-12
 CH3CHO,ethanal  2.818-14
 CH3COOH         1.456-15
 C2H6            2.101-14
 C2N2            1.815-15
 C3O2            8.282-16
 *H              8.9318-7
 HCN             5.6545-7
 HCO             5.154-10
 HCCO            1.565-16
 HNC             4.3401-9
 HNCO            4.0715-8
 HNO             4.141-15
 *H2             2.3601-1
 HCHO,formaldehy 1.9218-8
 HCOOH           5.8685-9
 H2O             5.6186-2
 H2O2            1.440-16
 *N              3.525-16
 NCO             2.907-14
 *NH             3.912-14
 NH2             7.760-11
 NH3             9.0098-6
 NH2OH           4.472-16
 *NO             3.112-11
 *N2             5.1299-1
 N2H2            6.688-16
 N2O             1.643-15
 *O              1.141-14
 *OH             3.8602-9
 *O2             1.318-15

  * THERMODYNAMIC PROPERTIES FITTED TO 20000.K









         THERMODYNAMIC EQUILIBRIUM COMBUSTION PROPERTIES AT ASSIGNED

                                   PRESSURES

 CASE =                

             REACTANT                       MOLES         ENERGY      TEMP
                                                         KJ/KG-MOL      K
 FUEL        C2H6                         1.0000000    -83754.210    300.000
 OXIDANT     O2                           3.5000000        54.358    300.000
 OXIDANT     N2                          13.1667000        53.881    300.000

 O/F=    6.15046  %FUEL= 13.985116  R,EQ.RATIO= 2.600000  PHI,EQ.RATIO= 2.600000

 THERMODYNAMIC PROPERTIES

 P, BAR            1.0000
 T, K             1278.17
 RHO, KG/CU M    2.0103-1
 H, KJ/KG         -387.93
 U, KJ/KG         -885.37
 G, KJ/KG        -14349.5
 S, KJ/(KG)(K)    10.9231

 M, (1/n)          21.364
 (dLV/dLP)t      -1.00004
 (dLV/dLT)p        1.0003
 Cp, KJ/(KG)(K)    1.6584
 GAMMAs            1.3068
 SON VEL,M/SEC      806.3

 MOLE FRACTIONS

 CH2             1.999-16
 CH3             1.841-10
 CH2OH           1.727-14
 CH3O            4.635-16
 CH4             5.9511-6
 CH3OH           2.062-11
 *CN             1.776-15
 *CO             1.7819-1
 *CO2            2.0533-2
 COOH            1.078-11
 C2H2,acetylene  1.103-11
 CH2CO,ketene    3.721-11
 O(CH)2O         1.025-16
 CH3CN           3.360-12
 CH3CO,acetyl    9.393-16
 C2H4            1.074-11
 CH3CHO,ethanal  9.037-14
 CH3COOH         3.949-15
 C2H6            1.715-13
 C2N2            2.442-15
 C3O2            1.113-15
 *H              3.8859-7
 HCN             7.4534-7
 HCO             3.063-10
 HCCO            1.171-16
 HNC             4.4961-9
 HNCO            4.4031-8
 HNO             8.994-16
 *H2             2.4980-1
 HCHO,formaldehy 2.1385-8
 HCOOH           5.5844-9
 H2O             4.8265-2
 NCO             1.149-14
 *NH             1.011-14
 NH2             4.011-11
 NH3             1.2057-5
 NH2OH           1.859-16
 *NO             6.745-12
 *N2             5.0319-1
 N2H2            3.150-16
 N2O             3.620-16
 *O              1.338-15
 *OH             1.0758-9
 *O2             1.275-16

  * THERMODYNAMIC PROPERTIES FITTED TO 20000.K









         THERMODYNAMIC EQUILIBRIUM COMBUSTION PROPERTIES AT ASSIGNED

                                   PRESSURES

 CASE =                

             REACTANT                       MOLES         ENERGY      TEMP
                                                         KJ/KG-MOL      K
 FUEL        C2H6                         1.0000000    -83754.210    300.000
 OXIDANT     O2                           3.5000000        54.358    300.000
 OXIDANT     N2                          13.1667000        53.881    300.000

 O/F=    5.92266  %FUEL= 14.445306  R,EQ.RATIO= 2.700000  PHI,EQ.RATIO= 2.700000

 THERMODYNAMIC PROPERTIES

 P, BAR            1.0000
 T, K             1224.96
 RHO, KG/CU M    2.0694-1
 H, KJ/KG         -400.76
 U, KJ/KG         -883.98
 G, KJ/KG        -13822.6
 S, KJ/(KG)(K)    10.9569

 M, (1/n)          21.077
 (dLV/dLP)t      -1.00010
 (dLV/dLT)p        1.0011
 Cp, KJ/(KG)(K)    1.6677
 GAMMAs            1.3105
 SON VEL,M/SEC      795.8

 MOLE FRACTIONS

 CH3             2.540-10
 CH2OH           1.352-14
 CH3O            3.141-16
 CH4             2.1309-5
 CH3OH           3.610-11
 *CN             6.591-16
 *CO             1.8318-1
 *CO2            1.9306-2
 COOH            5.027-12
 C2H2,acetylene  2.322-11
 CH2CO,ketene    7.123-11
 O(CH)2O         1.087-16
 CH3CN           1.432-11
 CH3CO,acetyl    1.587-15
 C2H4            5.118-11
 CH3CHO,ethanal  3.045-13
 CH3COOH         1.118-14
 C2H5            2.897-16
 C2H6            1.545-12
 C2N2            3.331-15
 C3O2            1.511-15
 *H              1.5985-7
 HCN             9.9212-7
 HCO             1.748-10
 HNC             4.6321-9
 HNCO            4.7562-8
 HNO             1.770-16
 *H2             2.6298-1
 HCHO,formaldehy 2.3673-8
 HCOOH           5.2545-9
 H2O             4.0719-2
 NCO             4.275-15
 *NH             2.389-15
 NH2             1.972-11
 NH3             1.6223-5
 *NO             1.330-12
 *N2             4.9377-1
 N2H2            1.406-16
 *O              1.374-16
 *OH             2.756-10

  * THERMODYNAMIC PROPERTIES FITTED TO 20000.K









         THERMODYNAMIC EQUILIBRIUM COMBUSTION PROPERTIES AT ASSIGNED

                                   PRESSURES

 CASE =                

             REACTANT                       MOLES         ENERGY      TEMP
                                                         KJ/KG-MOL      K
 FUEL        C2H6                         1.0000000    -83754.210    300.000
 OXIDANT     O2                           3.5000000        54.358    300.000
 OXIDANT     N2                          13.1667000        53.881    300.000

 O/F=    5.71114  %FUEL= 14.900597  R,EQ.RATIO= 2.800000  PHI,EQ.RATIO= 2.800000

 THERMODYNAMIC PROPERTIES

 P, BAR            1.0000
 T, K             1173.11
 RHO, KG/CU M    2.1328-1
 H, KJ/KG         -413.45
 U, KJ/KG         -882.33
 G, KJ/KG        -13301.8
 S, KJ/(KG)(K)    10.9865

 M, (1/n)          20.803
 (dLV/dLP)t      -1.00035
 (dLV/dLT)p        1.0041
 Cp, KJ/(KG)(K)    1.6872
 GAMMAs            1.3132
 SON VEL,M/SEC      784.7

 MOLE FRACTIONS

 CH3             3.528-10
 CH2OH           1.027-14
 CH3O            2.049-16
 CH4             8.1193-5
 CH3OH           6.420-11
 *CN             2.301-16
 *CO             1.8808-1
 *CO2            1.8014-2
 COOH            2.218-12
 C2H2,acetylene  5.074-11
 CH2CO,ketene    1.404-10
 O(CH)2O         1.145-16
 C2H3,vinyl      1.356-16
 CH3CN           6.600-11
 CH3CO,acetyl    2.733-15
 C2H4            2.640-10
 CH3CHO,ethanal  1.086-12
 CH3COOH         3.315-14
 C2H5            1.163-15
 C2H6            1.554-11
 C2H5OH          1.717-16
 C2N2            4.644-15
 C3H4,allene     1.406-16
 C3H4,propyne    4.640-16
 C3H6,propylene  1.106-15
 C3O2            2.085-15
 *H              6.2064-8
 HCN             1.3395-6
 HCO             9.571-11
 HNC             4.7645-9
 HNCO            5.1344-8
 *H2             2.7545-1
 HCHO,formaldehy 2.6085-8
 HCOOH           4.8743-9
 H2O             3.3612-2
 NCO             1.495-15
 *NH             5.148-16
 NH2             9.207-12
 NH3             2.1962-5
 *NO             2.371-13
 *N2             4.8474-1
 *OH             6.450-11

  * THERMODYNAMIC PROPERTIES FITTED TO 20000.K









         THERMODYNAMIC EQUILIBRIUM COMBUSTION PROPERTIES AT ASSIGNED

                                   PRESSURES

 CASE =                

             REACTANT                       MOLES         ENERGY      TEMP
                                                         KJ/KG-MOL      K
 FUEL        C2H6                         1.0000000    -83754.210    300.000
 OXIDANT     O2                           3.5000000        54.358    300.000
 OXIDANT     N2                          13.1667000        53.881    300.000

 O/F=    5.51420  %FUEL= 15.351068  R,EQ.RATIO= 2.900000  PHI,EQ.RATIO= 2.900000

 THERMODYNAMIC PROPERTIES

 P, BAR            1.0000
 T, K             1123.48
 RHO, KG/CU M    2.1994-1
 H, KJ/KG         -426.00
 U, KJ/KG         -880.66
 G, KJ/KG        -12797.5
 S, KJ/(KG)(K)    11.0117

 M, (1/n)          20.546
 (dLV/dLP)t      -1.00131
 (dLV/dLT)p        1.0165
 Cp, KJ/(KG)(K)    1.7561
 GAMMAs            1.3103
 SON VEL,M/SEC      771.8

 MOLE FRACTIONS

 CH3             4.931-10
 CH2OH           7.603-15
 CH3O            1.297-16
 CH4             3.2428-4
 CH3OH           1.150-10
 *CO             1.9283-1
 *CO2            1.6627-2
 COOH            9.336-13
 C2H2,acetylene  1.149-10
 CH2CO,ketene    2.838-10
 O(CH)2O         1.198-16
 C2H3,vinyl      2.346-16
 CH3CN           3.246-10
 CH3CO,acetyl    4.778-15
 C2H4            1.4531-9
 CH3CHO,ethanal  4.042-12
 CH3COOH         1.014-13
 C2H5            4.909-15
 C2H6            1.705-10
 C2H5OH          9.290-16
 C2N2            6.646-15
 C3H4,allene     9.981-16
 C3H4,propyne    3.394-15
 C3H6,propylene  1.847-14
 C3H8            3.213-16
 C3O2            2.924-15
 *H              2.3063-8
 HCN             1.8350-6
 HCO             5.072-11
 HNC             4.9137-9
 HNCO            5.5347-8
 *H2             2.8688-1
 HCHO,formaldehy 2.8576-8
 HCOOH           4.4447-9
 H2O             2.7102-2
 NCO             4.996-16
 *NH             1.034-16
 NH2             4.127-12
 NH3             2.9783-5
 *NO             3.898-14
 *N2             4.7621-1
 *OH             1.402-11

  * THERMODYNAMIC PROPERTIES FITTED TO 20000.K









         THERMODYNAMIC EQUILIBRIUM COMBUSTION PROPERTIES AT ASSIGNED

                                   PRESSURES

 CASE =                

             REACTANT                       MOLES         ENERGY      TEMP
                                                         KJ/KG-MOL      K
 FUEL        C2H6                         1.0000000    -83754.210    300.000
 OXIDANT     O2                           3.5000000        54.358    300.000
 OXIDANT     N2                          13.1667000        53.881    300.000

 O/F=    5.33040  %FUEL= 15.796796  R,EQ.RATIO= 3.000000  PHI,EQ.RATIO= 3.000000

 THERMODYNAMIC PROPERTIES

 P, BAR            1.0000
 T, K             1079.37
 RHO, KG/CU M    2.2647-1
 H, KJ/KG         -438.43
 U, KJ/KG         -879.99
 G, KJ/KG        -12346.8
 S, KJ/(KG)(K)    11.0327

 M, (1/n)          20.324
 (dLV/dLP)t      -1.00464
 (dLV/dLT)p        1.0617
 Cp, KJ/(KG)(K)    2.0107
 GAMMAs            1.2898
 SON VEL,M/SEC      754.7

 MOLE FRACTIONS

 CH3             6.794-10
 CH2OH           5.612-15
 CH4             1.2280-3
 CH3OH           1.986-10
 *CO             1.9711-1
 *CO2            1.5214-2
 COOH            3.985-13
 C2H2,acetylene  2.556-10
 CH2CO,ketene    5.601-10
 O(CH)2O         1.239-16
 C2H3,vinyl      4.008-16
 CH3CN           1.5235-9
 CH3CO,acetyl    8.172-15
 C2H4            7.5675-9
 CH3CHO,ethanal  1.429-11
 CH3COOH         2.938-13
 C2H5            1.971-14
 C2H6            1.7166-9
 C2H5OH          4.678-15
 C2N2            9.584-15
 C3H4,allene     6.712-15
 C3H4,propyne    2.348-14
 C3H5,allyl      1.342-16
 C3H6,propylene  2.814-13
 C3H6,cyclo-     1.713-16
 C3H6O,acetone   5.577-16
 C3H8            8.943-15
 C3O2            4.082-15
 *H              8.8411-9
 HCN             2.5010-6
 HCO             2.731-11
 HNC             5.0909-9
 HNCO            5.9241-8
 *H2             2.9620-1
 HCHO,formaldehy 3.0919-8
 HCOOH           3.9957-9
 H2O             2.1608-2
 NCO             1.732-16
 NH2             1.888-12
 NH3             3.9530-5
 *NO             6.749-15
 *N2             4.6860-1
 *OH             3.165-12

  * THERMODYNAMIC PROPERTIES FITTED TO 20000.K









         THERMODYNAMIC EQUILIBRIUM COMBUSTION PROPERTIES AT ASSIGNED

                                   PRESSURES

 CASE =                

             REACTANT                       MOLES         ENERGY      TEMP
                                                         KJ/KG-MOL      K
 FUEL        C2H6                         1.0000000    -83754.210    300.000
 OXIDANT     O2                           3.5000000        54.358    300.000
 OXIDANT     N2                          13.1667000        53.881    300.000

 O/F=    5.15845  %FUEL= 16.237853  R,EQ.RATIO= 3.100000  PHI,EQ.RATIO= 3.100000

 THERMODYNAMIC PROPERTIES

 P, BAR            1.0000
 T, K             1046.31
 RHO, KG/CU M    2.3184-1
 H, KJ/KG         -450.72
 U, KJ/KG         -882.05
 G, KJ/KG        -12012.5
 S, KJ/(KG)(K)    11.0500

 M, (1/n)          20.169
 (dLV/dLP)t      -1.01182
 (dLV/dLT)p        1.1631
 Cp, KJ/(KG)(K)    2.6074
 GAMMAs            1.2533
 SON VEL,M/SEC      735.2

 MOLE FRACTIONS

 CH3             8.780-10
 CH2OH           4.342-15
 CH4             3.5685-3
 CH3OH           3.034-10
 *CO             2.0026-1
 *CO2            1.3997-2
 COOH            1.978-13
 C2H2,acetylene  4.923-10
 CH2CO,ketene    9.691-10
 O(CH)2O         1.263-16
 C2H3,vinyl      6.217-16
 CH3CN           5.3325-9
 CH3CO,acetyl    1.256-14
 C2H4            2.8689-8
 CH3CHO,ethanal  3.923-11
 CH3COOH         6.816-13
 C2H5            6.037-14
 C2H6            1.0986-8
 C2H5OH          1.697-14
 C2N2            1.312-14
 C3H3,2-propynl  1.133-16
 C3H4,allene     3.157-14
 C3H4,propyne    1.130-13
 C3H5,allyl      7.051-16
 C3H6,propylene  2.539-12
 C3H6,cyclo-     1.375-15
 C3H6O,acetone   3.904-15
 C3H6O,propanal  3.419-16
 C3H8            1.301-13
 C3O2            5.380-15
 C4H6,butadiene  2.268-16
 *H              4.0760-9
 HCN             3.2279-6
 HCO             1.651-11
 HNC             5.2694-9
 HNCO            6.2280-8
 *H2             3.0186-1
 HCHO,formaldehy 3.2660-8
 HCOOH           3.6028-9
 H2O             1.7682-2
 NH2             9.986-13
 NH3             4.9113-5
 *NO             1.628-15
 *N2             4.6258-1
 *OH             9.418-13

  * THERMODYNAMIC PROPERTIES FITTED TO 20000.K









         THERMODYNAMIC EQUILIBRIUM COMBUSTION PROPERTIES AT ASSIGNED

                                   PRESSURES

 CASE =                

             REACTANT                       MOLES         ENERGY      TEMP
                                                         KJ/KG-MOL      K
 FUEL        C2H6                         1.0000000    -83754.210    300.000
 OXIDANT     O2                           3.5000000        54.358    300.000
 OXIDANT     N2                          13.1667000        53.881    300.000

 O/F=    4.99725  %FUEL= 16.674315  R,EQ.RATIO= 3.200000  PHI,EQ.RATIO= 3.200000

 THERMODYNAMIC PROPERTIES

 P, BAR            1.0000
 T, K             1026.92
 RHO, KG/CU M    2.3522-1
 H, KJ/KG         -462.89
 U, KJ/KG         -888.03
 G, KJ/KG        -11825.4
 S, KJ/(KG)(K)    11.0646

 M, (1/n)          20.084
 MW, MOL WT        20.052
 (dLV/dLP)t      -1.02795
 (dLV/dLT)p        1.4510
 Cp, KJ/(KG)(K)    4.8011
 GAMMAs            1.1815
 SON VEL,M/SEC      708.7

 MOLE FRACTIONS

 CH3             1.0042-9
 CH2OH           3.668-15
 CH4             6.7191-3
 CH3OH           3.894-10
 *CO             2.0072-1
 *CO2            1.3373-2
 COOH            1.291-13
 C2H2,acetylene  7.076-10
 CH2CO,ketene    1.3208-9
 O(CH)2O         1.259-16
 C2H3,vinyl      7.810-16
 CH3CN           1.1056-8
 CH3CO,acetyl    1.590-14
 C2H4            6.2456-8
 CH3CHO,ethanal  7.093-11
 CH3COOH         1.126-12
 C2H5            1.151-13
 C2H6            3.2955-8
 C2H5OH          3.635-14
 C2N2            1.529-14
 C3H3,2-propynl  2.002-16
 C3H4,allene     7.704-14
 C3H4,propyne    2.796-13
 C3H5,allyl      1.840-15
 C3H6,propylene  9.239-12
 C3H6,cyclo-     4.654-15
 C3H6O,acetone   1.231-14
 C3H6O,propanal  9.973-16
 C3H8            6.345-13
 C3O2            6.180-15
 C4H6,butadiene  1.018-15
 C4H8,1-butene   1.675-16
 C4H8,cis2-buten 1.224-16
 C4H8,tr2-butene 1.407-16
 C4H8,isobutene  2.104-16
 C6H6            8.691-16
 *H              2.5234-9
 HCN             3.6948-6
 HCO             1.200-11
 HNC             5.2647-9
 HNCO            6.3648-8
 *H2             3.0429-1
 HCHO,formaldehy 3.3460-8
 HCOOH           3.3937-9
 H2O             1.5769-2
 NH2             6.714-13
 NH3             5.5827-5
 *NO             6.852-16
 *N2             4.5749-1
 *OH             4.508-13
 C(gr)           1.5703-3

  * THERMODYNAMIC PROPERTIES FITTED TO 20000.K









         THERMODYNAMIC EQUILIBRIUM COMBUSTION PROPERTIES AT ASSIGNED

                                   PRESSURES

 CASE =                

             REACTANT                       MOLES         ENERGY      TEMP
                                                         KJ/KG-MOL      K
 FUEL        C2H6                         1.0000000    -83754.210    300.000
 OXIDANT     O2                           3.5000000        54.358    300.000
 OXIDANT     N2                          13.1667000        53.881    300.000

 O/F=    4.84582  %FUEL= 17.106251  R,EQ.RATIO= 3.300000  PHI,EQ.RATIO= 3.300000

 THERMODYNAMIC PROPERTIES

 P, BAR            1.0000
 T, K             1021.39
 RHO, KG/CU M    2.3598-1
 H, KJ/KG         -474.93
 U, KJ/KG         -898.68
 G, KJ/KG        -11790.0
 S, KJ/(KG)(K)    11.0782

 M, (1/n)          20.041
 MW, MOL WT        19.839
 (dLV/dLP)t      -1.02956
 (dLV/dLT)p        1.4777
 Cp, KJ/(KG)(K)    5.0169
 GAMMAs            1.1779
 SON VEL,M/SEC      706.5

 MOLE FRACTIONS

 CH3             9.360-10
 CH2OH           3.452-15
 CH4             7.2990-3
 CH3OH           4.172-10
 *CO             1.9431-1
 *CO2            1.4084-2
 COOH            1.224-13
 C2H2,acetylene  6.188-10
 CH2CO,ketene    1.2548-9
 O(CH)2O         1.204-16
 C2H3,vinyl      6.614-16
 CH3CN           1.0817-8
 CH3CO,acetyl    1.489-14
 C2H4            6.2579-8
 CH3CHO,ethanal  7.426-11
 CH3COOH         1.267-12
 C2H5            1.118-13
 C2H6            3.6797-8
 C2H5OH          4.058-14
 C2N2            1.234-14
 C3H3,2-propynl  1.656-16
 C3H4,allene     7.056-14
 C3H4,propyne    2.572-13
 C3H5,allyl      1.732-15
 C3H6,propylene  9.649-12
 C3H6,cyclo-     4.760-15
 C3H6O,acetone   1.360-14
 C3H6O,propanal  1.077-15
 C3H8            7.325-13
 C3O2            5.368-15
 C4H6,butadiene  1.000-15
 C4H8,1-butene   1.809-16
 C4H8,cis2-buten 1.331-16
 C4H8,tr2-butene 1.531-16
 C4H8,isobutene  2.296-16
 C6H6            8.722-16
 *H              2.1913-9
 HCN             3.3875-6
 HCO             1.065-11
 HNC             4.6385-9
 HNCO            6.2276-8
 *H2             3.0698-1
 HCHO,formaldehy 3.3075-8
 HCOOH           3.6115-9
 H2O             1.6932-2
 NH2             6.003-13
 NH3             5.8622-5
 *NO             5.807-16
 *N2             4.5030-1
 *OH             4.006-13
 C(gr)           1.0033-2

  * THERMODYNAMIC PROPERTIES FITTED TO 20000.K









         THERMODYNAMIC EQUILIBRIUM COMBUSTION PROPERTIES AT ASSIGNED

                                   PRESSURES

 CASE =                

             REACTANT                       MOLES         ENERGY      TEMP
                                                         KJ/KG-MOL      K
 FUEL        C2H6                         1.0000000    -83754.210    300.000
 OXIDANT     O2                           3.5000000        54.358    300.000
 OXIDANT     N2                          13.1667000        53.881    300.000

 O/F=    4.70329  %FUEL= 17.533733  R,EQ.RATIO= 3.400000  PHI,EQ.RATIO= 3.400000

 THERMODYNAMIC PROPERTIES

 P, BAR            1.0000
 T, K             1016.15
 RHO, KG/CU M    2.3671-1
 H, KJ/KG         -486.84
 U, KJ/KG         -909.30
 G, KJ/KG        -11757.5
 S, KJ/(KG)(K)    11.0914

 M, (1/n)          19.999
 MW, MOL WT        19.635
 (dLV/dLP)t      -1.03112
 (dLV/dLT)p        1.5033
 Cp, KJ/(KG)(K)    5.2254
 GAMMAs            1.1747
 SON VEL,M/SEC      704.4

 MOLE FRACTIONS

 CH3             8.750-10
 CH2OH           3.252-15
 CH4             7.8970-3
 CH3OH           4.449-10
 *CO             1.8811-1
 *CO2            1.4758-2
 COOH            1.161-13
 C2H2,acetylene  5.444-10
 CH2CO,ketene    1.1931-9
 O(CH)2O         1.151-16
 C2H3,vinyl      5.642-16
 CH3CN           1.0591-8
 CH3CO,acetyl    1.397-14
 C2H4            6.2679-8
 CH3CHO,ethanal  7.747-11
 CH3COOH         1.413-12
 C2H5            1.086-13
 C2H6            4.0868-8
 C2H5OH          4.500-14
 C2N2            1.006-14
 C3H3,2-propynl  1.382-16
 C3H4,allene     6.486-14
 C3H4,propyne    2.373-13
 C3H5,allyl      1.633-15
 C3H6,propylene  1.006-11
 C3H6,cyclo-     4.862-15
 C3H6O,acetone   1.494-14
 C3H6O,propanal  1.158-15
 C3H8            8.398-13
 C3O2            4.680-15
 C4H6,butadiene  9.825-16
 C4H8,1-butene   1.947-16
 C4H8,cis2-buten 1.440-16
 C4H8,tr2-butene 1.658-16
 C4H8,isobutene  2.495-16
 C6H6            8.750-16
 *H              1.9149-9
 HCN             3.1170-6
 HCO             9.495-12
 HNC             4.1090-9
 HNCO            6.0899-8
 *H2             3.0950-1
 HCHO,formaldehy 3.2663-8
 HCOOH           3.8220-9
 H2O             1.8094-2
 NH2             5.392-13
 NH3             6.1399-5
 *NO             4.951-16
 *N2             4.4335-1
 *OH             3.573-13
 C(gr)           1.8217-2

  * THERMODYNAMIC PROPERTIES FITTED TO 20000.K









         THERMODYNAMIC EQUILIBRIUM COMBUSTION PROPERTIES AT ASSIGNED

                                   PRESSURES

 CASE =                

             REACTANT                       MOLES         ENERGY      TEMP
                                                         KJ/KG-MOL      K
 FUEL        C2H6                         1.0000000    -83754.210    300.000
 OXIDANT     O2                           3.5000000        54.358    300.000
 OXIDANT     N2                          13.1667000        53.881    300.000

 O/F=    4.56891  %FUEL= 17.956828  R,EQ.RATIO= 3.500000  PHI,EQ.RATIO= 3.500000

 THERMODYNAMIC PROPERTIES

 P, BAR            1.0000
 T, K             1011.20
 RHO, KG/CU M    2.3740-1
 H, KJ/KG         -498.63
 U, KJ/KG         -919.86
 G, KJ/KG        -11727.3
 S, KJ/(KG)(K)    11.1043

 M, (1/n)          19.960
 MW, MOL WT        19.438
 (dLV/dLP)t      -1.03262
 (dLV/dLT)p        1.5279
 Cp, KJ/(KG)(K)    5.4262
 GAMMAs            1.1718
 SON VEL,M/SEC      702.6

 MOLE FRACTIONS

 CH3             8.201-10
 CH2OH           3.068-15
 CH4             8.5126-3
 CH3OH           4.724-10
 *CO             1.8212-1
 *CO2            1.5395-2
 COOH            1.101-13
 C2H2,acetylene  4.814-10
 CH2CO,ketene    1.1353-9
 O(CH)2O         1.099-16
 C2H3,vinyl      4.845-16
 CH3CN           1.0374-8
 CH3CO,acetyl    1.312-14
 C2H4            6.2755-8
 CH3CHO,ethanal  8.055-11
 CH3COOH         1.566-12
 C2H5            1.057-13
 C2H6            4.5169-8
 C2H5OH          4.961-14
 C2N2            8.262-15
 C3H3,2-propynl  1.161-16
 C3H4,allene     5.983-14
 C3H4,propyne    2.197-13
 C3H5,allyl      1.544-15
 C3H6,propylene  1.046-11
 C3H6,cyclo-     4.959-15
 C3H6O,acetone   1.632-14
 C3H6O,propanal  1.238-15
 C3H8            9.568-13
 C3O2            4.094-15
 C4H6,butadiene  9.656-16
 C4H8,1-butene   2.087-16
 C4H8,cis2-buten 1.553-16
 C4H8,tr2-butene 1.788-16
 C4H8,isobutene  2.700-16
 C6H6            8.772-16
 *H              1.6827-9
 HCN             2.8775-6
 HCO             8.492-12
 HNC             3.6578-9
 HNCO            5.9521-8
 *H2             3.1187-1
 HCHO,formaldehy 3.2228-8
 HCOOH           4.0246-9
 H2O             1.9255-2
 NH2             4.864-13
 NH3             6.4156-5
 *NO             4.244-16
 *N2             4.3665-1
 *OH             3.199-13
 C(gr)           2.6134-2

  * THERMODYNAMIC PROPERTIES FITTED TO 20000.K









         THERMODYNAMIC EQUILIBRIUM COMBUSTION PROPERTIES AT ASSIGNED

                                   PRESSURES

 CASE =                

             REACTANT                       MOLES         ENERGY      TEMP
                                                         KJ/KG-MOL      K
 FUEL        C2H6                         1.0000000    -83754.210    300.000
 OXIDANT     O2                           3.5000000        54.358    300.000
 OXIDANT     N2                          13.1667000        53.881    300.000

 O/F=    4.44200  %FUEL= 18.375603  R,EQ.RATIO= 3.600000  PHI,EQ.RATIO= 3.600000

 THERMODYNAMIC PROPERTIES

 P, BAR            1.0000
 T, K             1006.48
 RHO, KG/CU M    2.3805-1
 H, KJ/KG         -510.31
 U, KJ/KG         -930.38
 G, KJ/KG        -11699.3
 S, KJ/(KG)(K)    11.1169

 M, (1/n)          19.921
 MW, MOL WT        19.248
 (dLV/dLP)t      -1.03406
 (dLV/dLT)p        1.5515
 Cp, KJ/(KG)(K)    5.6191
 GAMMAs            1.1692
 SON VEL,M/SEC      700.8

 MOLE FRACTIONS

 CH3             7.705-10
 CH2OH           2.896-15
 CH4             9.1454-3
 CH3OH           4.996-10
 *CO             1.7632-1
 *CO2            1.5994-2
 COOH            1.044-13
 C2H2,acetylene  4.278-10
 CH2CO,ketene    1.0809-9
 O(CH)2O         1.050-16
 C2H3,vinyl      4.184-16
 CH3CN           1.0167-8
 CH3CO,acetyl    1.233-14
 C2H4            6.2807-8
 CH3CHO,ethanal  8.350-11
 CH3COOH         1.723-12
 C2H5            1.029-13
 C2H6            4.9701-8
 C2H5OH          5.439-14
 C2N2            6.839-15
 C3H4,allene     5.534-14
 C3H4,propyne    2.040-13
 C3H5,allyl      1.462-15
 C3H6,propylene  1.085-11
 C3H6,cyclo-     5.052-15
 C3H6O,acetone   1.773-14
 C3H6O,propanal  1.319-15
 C3H8            1.084-12
 C3O2            3.592-15
 C4H6,butadiene  9.493-16
 C4H8,1-butene   2.230-16
 C4H8,cis2-buten 1.668-16
 C4H8,tr2-butene 1.923-16
 C4H8,isobutene  2.912-16
 C6H6            8.790-16
 *H              1.4862-9
 HCN             2.6642-6
 HCO             7.619-12
 HNC             3.2705-9
 HNCO            5.8148-8
 *H2             3.1408-1
 HCHO,formaldehy 3.1773-8
 HCOOH           4.2190-9
 H2O             2.0411-2
 NH2             4.405-13
 NH3             6.6893-5
 *NO             3.656-16
 *N2             4.3018-1
 *OH             2.872-13
 C(gr)           3.3792-2

  * THERMODYNAMIC PROPERTIES FITTED TO 20000.K



