
 *******************************************************************************

         NASA-GLENN CHEMICAL EQUILIBRIUM PROGRAM CEA2, MAY 21, 2004
                   BY  BONNIE MCBRIDE AND SANFORD GORDON
      REFS: NASA RP-1311, PART I, 1994 AND NASA RP-1311, PART II, 1996

 *******************************************************************************



 problem    phi,eq.ratio=0.5,0.6,0.7,0.8,0.9,1,1.1,1.2,1.3,1.4,1.5,1.6,1.7,1.8,1.
 9,2,
       hp   p,bar=1,  t,k=3800
 react
   fuel=C3H8 moles=1  t,k=300
   oxid=O2 moles=5  t,k=300
 output  short   trace=1e-16
 end




         THERMODYNAMIC EQUILIBRIUM COMBUSTION PROPERTIES AT ASSIGNED

                                   PRESSURES

 CASE =                

             REACTANT                       MOLES         ENERGY      TEMP
                                                         KJ/KG-MOL      K
 FUEL        C3H8                         1.0000000   -104543.521    300.000
 OXIDANT     O2                           5.0000000        54.358    300.000

 O/F=    7.25668  %FUEL= 12.111399  R,EQ.RATIO= 0.500000  PHI,EQ.RATIO= 0.500000

 THERMODYNAMIC PROPERTIES

 P, BAR            1.0000
 T, K             2893.01
 RHO, KG/CU M    1.1481-1
 H, KJ/KG         -285.65
 U, KJ/KG        -1156.68
 G, KJ/KG        -31336.7
 S, KJ/(KG)(K)    10.7331

 M, (1/n)          27.615
 (dLV/dLP)t      -1.03793
 (dLV/dLT)p        1.8363
 Cp, KJ/(KG)(K)    7.2664
 GAMMAs            1.1133
 SON VEL,M/SEC      984.8

 MOLE FRACTIONS

 *C              5.675-13
 *CH             3.385-14
 CH2             1.512-14
 CH3             7.167-15
 CH2OH           6.261-15
 CH3O            1.378-15
 CH4             4.454-16
 *CO             6.0365-2
 *CO2            1.6718-1
 COOH            2.2358-7
 C2O             7.306-15
 *H              1.2465-2
 HCO             6.4311-8
 HCCO            1.030-16
 HO2             8.5680-5
 *H2             1.2273-2
 HCHO,formaldehy 3.039-10
 HCOOH           5.4977-9
 H2O             2.4385-1
 H2O2            2.2054-6
 *O              4.7329-2
 *OH             8.1996-2
 *O2             3.7445-1
 O3              2.4011-7

  * THERMODYNAMIC PROPERTIES FITTED TO 20000.K









         THERMODYNAMIC EQUILIBRIUM COMBUSTION PROPERTIES AT ASSIGNED

                                   PRESSURES

 CASE =                

             REACTANT                       MOLES         ENERGY      TEMP
                                                         KJ/KG-MOL      K
 FUEL        C3H8                         1.0000000   -104543.521    300.000
 OXIDANT     O2                           5.0000000        54.358    300.000

 O/F=    6.04724  %FUEL= 14.189958  R,EQ.RATIO= 0.600000  PHI,EQ.RATIO= 0.600000

 THERMODYNAMIC PROPERTIES

 P, BAR            1.0000
 T, K             2965.05
 RHO, KG/CU M    1.0736-1
 H, KJ/KG         -334.96
 U, KJ/KG        -1266.41
 G, KJ/KG        -33483.4
 S, KJ/(KG)(K)    11.1797

 M, (1/n)          26.467
 (dLV/dLP)t      -1.04958
 (dLV/dLT)p        2.0591
 Cp, KJ/(KG)(K)    8.9082
 GAMMAs            1.1110
 SON VEL,M/SEC     1017.3

 MOLE FRACTIONS

 *C              2.220-12
 *CH             1.470-13
 CH2             6.656-14
 CH3             3.097-14
 CH2OH           2.022-14
 CH3O            4.672-15
 CH4             1.961-15
 CH3OH           2.824-16
 *CO             8.9411-2
 *CO2            1.6611-1
 COOH            3.3441-7
 CH2CO,ketene    2.021-16
 C2O             3.109-14
 *H              1.9765-2
 HCO             1.3974-7
 HCCO            4.895-16
 HO2             8.4952-5
 *H2             1.9406-2
 HCHO,formaldehy 7.134-10
 HCOOH           8.8452-9
 H2O             2.6421-1
 H2O2            2.3664-6
 *O              5.4209-2
 *OH             9.4289-2
 *O2             2.9252-1
 O3              1.9641-7

  * THERMODYNAMIC PROPERTIES FITTED TO 20000.K









         THERMODYNAMIC EQUILIBRIUM COMBUSTION PROPERTIES AT ASSIGNED

                                   PRESSURES

 CASE =                

             REACTANT                       MOLES         ENERGY      TEMP
                                                         KJ/KG-MOL      K
 FUEL        C3H8                         1.0000000   -104543.521    300.000
 OXIDANT     O2                           5.0000000        54.358    300.000

 O/F=    5.18335  %FUEL= 16.172474  R,EQ.RATIO= 0.700000  PHI,EQ.RATIO= 0.700000

 THERMODYNAMIC PROPERTIES

 P, BAR            1.0000
 T, K             3015.07
 RHO, KG/CU M    1.0141-1
 H, KJ/KG         -382.00
 U, KJ/KG        -1368.09
 G, KJ/KG        -35337.4
 S, KJ/(KG)(K)    11.5936

 M, (1/n)          25.422
 (dLV/dLP)t      -1.05911
 (dLV/dLT)p        2.2342
 Cp, KJ/(KG)(K)   10.3096
 GAMMAs            1.1102
 SON VEL,M/SEC     1046.3

 MOLE FRACTIONS

 *C              5.889-12
 *CH             4.294-13
 CH2             2.014-13
 CH3             9.514-14
 CH2OH           4.880-14
 CH3O            1.165-14
 CH4             6.269-15
 CH3OH           7.217-16
 *CO             1.1855-1
 *CO2            1.6116-1
 COOH            4.3761-7
 CH2CO,ketene    6.573-16
 C2O             8.909-14
 *H              2.7599-2
 HCO             2.4566-7
 HCCO            1.550-15
 HO2             7.9058-5
 *H2             2.7774-2
 HCHO,formaldehy 1.3564-9
 HCOOH           1.2482-8
 H2O             2.8062-1
 H2O2            2.3838-6
 *O              5.6647-2
 *OH             1.0145-1
 *O2             2.2612-1
 O3              1.4964-7

  * THERMODYNAMIC PROPERTIES FITTED TO 20000.K









         THERMODYNAMIC EQUILIBRIUM COMBUSTION PROPERTIES AT ASSIGNED

                                   PRESSURES

 CASE =                

             REACTANT                       MOLES         ENERGY      TEMP
                                                         KJ/KG-MOL      K
 FUEL        C3H8                         1.0000000   -104543.521    300.000
 OXIDANT     O2                           5.0000000        54.358    300.000

 O/F=    4.53543  %FUEL= 18.065451  R,EQ.RATIO= 0.800000  PHI,EQ.RATIO= 0.800000

 THERMODYNAMIC PROPERTIES

 P, BAR            1.0000
 T, K             3050.35
 RHO, KG/CU M    9.6498-2
 H, KJ/KG         -426.91
 U, KJ/KG        -1463.20
 G, KJ/KG        -36967.0
 S, KJ/(KG)(K)    11.9790

 M, (1/n)          24.474
 (dLV/dLP)t      -1.06643
 (dLV/dLT)p        2.3638
 Cp, KJ/(KG)(K)   11.4661
 GAMMAs            1.1100
 SON VEL,M/SEC     1072.5

 MOLE FRACTIONS

 *C              1.232-11
 *CH             9.844-13
 CH2             4.854-13
 CH3             2.376-13
 CH2OH           9.856-14
 CH3O            2.407-14
 CH4             1.652-14
 CH3OH           1.555-15
 *CO             1.4696-1
 *CO2            1.5384-1
 COOH            5.2617-7
 CH2CO,ketene    1.700-15
 C2O             2.007-13
 *H              3.5604-2
 HCO             3.7913-7
 HCCO            3.837-15
 HO2             7.0246-5
 *H2             3.7387-2
 HCHO,formaldehy 2.2666-9
 HCOOH           1.6217-8
 H2O             2.9365-1
 H2O2            2.2946-6
 *O              5.5685-2
 *OH             1.0439-1
 *O2             1.7242-1
 O3              1.0783-7

  * THERMODYNAMIC PROPERTIES FITTED TO 20000.K









         THERMODYNAMIC EQUILIBRIUM COMBUSTION PROPERTIES AT ASSIGNED

                                   PRESSURES

 CASE =                

             REACTANT                       MOLES         ENERGY      TEMP
                                                         KJ/KG-MOL      K
 FUEL        C3H8                         1.0000000   -104543.521    300.000
 OXIDANT     O2                           5.0000000        54.358    300.000

 O/F=    4.03149  %FUEL= 19.874823  R,EQ.RATIO= 0.900000  PHI,EQ.RATIO= 0.900000

 THERMODYNAMIC PROPERTIES

 P, BAR            1.0000
 T, K             3074.64
 RHO, KG/CU M    9.2362-2
 H, KJ/KG         -469.84
 U, KJ/KG        -1552.54
 G, KJ/KG        -38407.9
 S, KJ/(KG)(K)    12.3391

 M, (1/n)          23.611
 (dLV/dLP)t      -1.07148
 (dLV/dLT)p        2.4491
 Cp, KJ/(KG)(K)   12.3650
 GAMMAs            1.1103
 SON VEL,M/SEC     1096.4

 MOLE FRACTIONS

 *C              2.191-11
 *CH             1.916-12
 CH2             1.005-12
 CH3             5.183-13
 CH2OH           1.766-13
 CH3O            4.382-14
 CH4             3.841-14
 CH3OH           2.994-15
 *CO             1.7424-1
 *CO2            1.4503-1
 COOH            5.9608-7
 C2H2,acetylene  1.746-16
 CH2CO,ketene    3.788-15
 C2O             3.850-13
 *H              4.3480-2
 HCO             5.3591-7
 HCCO            8.066-15
 HO2             6.0005-5
 *H2             4.8318-2
 HCHO,formaldehy 3.4764-9
 HCOOH           1.9908-8
 H2O             3.0370-1
 H2O2            2.1275-6
 *O              5.2210-2
 *OH             1.0379-1
 *O2             1.2917-1
 O3              7.3770-8

  * THERMODYNAMIC PROPERTIES FITTED TO 20000.K









         THERMODYNAMIC EQUILIBRIUM COMBUSTION PROPERTIES AT ASSIGNED

                                   PRESSURES

 CASE =                

             REACTANT                       MOLES         ENERGY      TEMP
                                                         KJ/KG-MOL      K
 FUEL        C3H8                         1.0000000   -104543.521    300.000
 OXIDANT     O2                           5.0000000        54.358    300.000

 O/F=    3.62834  %FUEL= 21.606008  R,EQ.RATIO= 1.000000  PHI,EQ.RATIO= 1.000000

 THERMODYNAMIC PROPERTIES

 P, BAR            1.0000
 T, K             3089.90
 RHO, KG/CU M    8.8840-2
 H, KJ/KG         -510.91
 U, KJ/KG        -1636.54
 G, KJ/KG        -39679.1
 S, KJ/(KG)(K)    12.6762

 M, (1/n)          22.824
 (dLV/dLP)t      -1.07415
 (dLV/dLT)p        2.4894
 Cp, KJ/(KG)(K)   12.9802
 GAMMAs            1.1108
 SON VEL,M/SEC     1118.2

 MOLE FRACTIONS

 *C              3.460-11
 *CH             3.311-12
 CH2             1.868-12
 CH3             1.030-12
 CH2OH           2.909-13
 CH3O            7.285-14
 CH4             8.222-14
 CH3OH           5.337-15
 *CO             2.0019-1
 *CO2            1.3530-1
 COOH            6.4514-7
 C2H2,acetylene  4.332-16
 CH2CO,ketene    7.617-15
 O(CH)2O         1.036-16
 C2O             6.586-13
 C3O2            1.013-16
 *H              5.0948-2
 HCO             7.1083-7
 HCCO            1.512-14
 HO2             4.9354-5
 *H2             6.0702-2
 HCHO,formaldehy 5.0211-9
 HCOOH           2.3442-8
 H2O             3.1102-1
 H2O2            1.9058-6
 *O              4.6956-2
 *OH             1.0021-1
 *O2             9.4615-2
 O3              4.7815-8

  * THERMODYNAMIC PROPERTIES FITTED TO 20000.K









         THERMODYNAMIC EQUILIBRIUM COMBUSTION PROPERTIES AT ASSIGNED

                                   PRESSURES

 CASE =                

             REACTANT                       MOLES         ENERGY      TEMP
                                                         KJ/KG-MOL      K
 FUEL        C3H8                         1.0000000   -104543.521    300.000
 OXIDANT     O2                           5.0000000        54.358    300.000

 O/F=    3.29849  %FUEL= 23.263968  R,EQ.RATIO= 1.100000  PHI,EQ.RATIO= 1.100000

 THERMODYNAMIC PROPERTIES

 P, BAR            1.0000
 T, K             3097.09
 RHO, KG/CU M    8.5825-2
 H, KJ/KG         -550.25
 U, KJ/KG        -1715.41
 G, KJ/KG        -40788.7
 S, KJ/(KG)(K)    12.9924

 M, (1/n)          22.101
 (dLV/dLP)t      -1.07426
 (dLV/dLT)p        2.4824
 Cp, KJ/(KG)(K)   13.2711
 GAMMAs            1.1116
 SON VEL,M/SEC     1138.1

 MOLE FRACTIONS

 *C              4.967-11
 *CH             5.216-12
 CH2             3.201-12
 CH3             1.916-12
 CH2OH           4.497-13
 CH3O            1.131-13
 CH4             1.666-13
 CH3OH           9.007-15
 *CO             2.2475-1
 *CO2            1.2504-1
 COOH            6.7224-7
 C2H             1.520-16
 C2H2,acetylene  9.857-16
 CH2CO,ketene    1.425-14
 O(CH)2O         1.612-16
 C2O             1.033-12
 C3O2            1.743-16
 *H              5.7715-2
 HCO             8.9776-7
 HCCO            2.602-14
 HO2             3.9010-5
 *H2             7.4725-2
 HCHO,formaldehy 6.9416-9
 HCOOH           2.6728-8
 H2O             3.1574-1
 H2O2            1.6490-6
 *O              4.0546-2
 *OH             9.4090-2
 *O2             6.7344-2
 O3              2.9165-8

  * THERMODYNAMIC PROPERTIES FITTED TO 20000.K









         THERMODYNAMIC EQUILIBRIUM COMBUSTION PROPERTIES AT ASSIGNED

                                   PRESSURES

 CASE =                

             REACTANT                       MOLES         ENERGY      TEMP
                                                         KJ/KG-MOL      K
 FUEL        C3H8                         1.0000000   -104543.521    300.000
 OXIDANT     O2                           5.0000000        54.358    300.000

 O/F=    3.02362  %FUEL= 24.853251  R,EQ.RATIO= 1.200000  PHI,EQ.RATIO= 1.200000

 THERMODYNAMIC PROPERTIES

 P, BAR            1.0000
 T, K             3096.48
 RHO, KG/CU M    8.3248-2
 H, KJ/KG         -587.95
 U, KJ/KG        -1789.19
 G, KJ/KG        -41736.9
 S, KJ/(KG)(K)    13.2890

 M, (1/n)          21.433
 (dLV/dLP)t      -1.07165
 (dLV/dLT)p        2.4255
 Cp, KJ/(KG)(K)   13.1908
 GAMMAs            1.1128
 SON VEL,M/SEC     1156.2

 MOLE FRACTIONS

 *C              6.570-11
 *CH             7.606-12
 CH2             5.150-12
 CH3             3.401-12
 CH2OH           6.622-13
 CH3O            1.665-13
 CH4             3.262-13
 CH3OH           1.463-14
 *CO             2.4790-1
 *CO2            1.1450-1
 COOH            6.7703-7
 C2H             2.949-16
 C2H2,acetylene  2.111-15
 CH2CO,ketene    2.535-14
 O(CH)2O         2.379-16
 C2O             1.510-12
 C3O2            2.817-16
 *H              6.3452-2
 HCO             1.0893-6
 HCCO            4.195-14
 HO2             2.9487-5
 *H2             9.0638-2
 HCHO,formaldehy 9.2866-9
 HCOOH           2.9681-8
 H2O             3.1790-1
 H2O2            1.3743-6
 *O              3.3525-2
 *OH             8.5829-2
 *O2             4.6223-2
 O3              1.6563-8

  * THERMODYNAMIC PROPERTIES FITTED TO 20000.K









         THERMODYNAMIC EQUILIBRIUM COMBUSTION PROPERTIES AT ASSIGNED

                                   PRESSURES

 CASE =                

             REACTANT                       MOLES         ENERGY      TEMP
                                                         KJ/KG-MOL      K
 FUEL        C3H8                         1.0000000   -104543.521    300.000
 OXIDANT     O2                           5.0000000        54.358    300.000

 O/F=    2.79103  %FUEL= 26.378038  R,EQ.RATIO= 1.300000  PHI,EQ.RATIO= 1.300000

 THERMODYNAMIC PROPERTIES

 P, BAR            1.0000
 T, K             3087.81
 RHO, KG/CU M    8.1063-2
 H, KJ/KG         -624.13
 U, KJ/KG        -1857.73
 G, KJ/KG        -42517.4
 S, KJ/(KG)(K)    13.5673

 M, (1/n)          20.812
 (dLV/dLP)t      -1.06630
 (dLV/dLT)p        2.3180
 Cp, KJ/(KG)(K)   12.7046
 GAMMAs            1.1144
 SON VEL,M/SEC     1172.5

 MOLE FRACTIONS

 *C              8.054-11
 *CH             1.035-11
 CH2             7.857-12
 CH3             5.837-12
 CH2OH           9.371-13
 CH3O            2.344-13
 CH4             6.271-13
 CH3OH           2.312-14
 *CO             2.6962-1
 *CO2            1.0387-1
 COOH            6.5979-7
 C2H             5.336-16
 C2H2,acetylene  4.341-15
 CH2CO,ketene    4.352-14
 O(CH)2O         3.362-16
 C2O             2.081-12
 C3O2            4.342-16
 *H              6.7781-2
 HCO             1.2762-6
 HCCO            6.414-14
 HO2             2.1152-5
 *H2             1.0874-1
 HCHO,formaldehy 1.2114-8
 HCOOH           3.2218-8
 H2O             3.1742-1
 H2O2            1.0975-6
 *O              2.6396-2
 *OH             7.5843-2
 *O2             3.0304-2
 O3              8.6277-9

  * THERMODYNAMIC PROPERTIES FITTED TO 20000.K









         THERMODYNAMIC EQUILIBRIUM COMBUSTION PROPERTIES AT ASSIGNED

                                   PRESSURES

 CASE =                

             REACTANT                       MOLES         ENERGY      TEMP
                                                         KJ/KG-MOL      K
 FUEL        C3H8                         1.0000000   -104543.521    300.000
 OXIDANT     O2                           5.0000000        54.358    300.000

 O/F=    2.59167  %FUEL= 27.842178  R,EQ.RATIO= 1.400000  PHI,EQ.RATIO= 1.400000

 THERMODYNAMIC PROPERTIES

 P, BAR            1.0000
 T, K             3070.43
 RHO, KG/CU M    7.9246-2
 H, KJ/KG         -658.87
 U, KJ/KG        -1920.76
 G, KJ/KG        -43117.6
 S, KJ/(KG)(K)    13.8283

 M, (1/n)          20.231
 (dLV/dLP)t      -1.05853
 (dLV/dLT)p        2.1657
 Cp, KJ/(KG)(K)   11.8206
 GAMMAs            1.1167
 SON VEL,M/SEC     1187.1

 MOLE FRACTIONS

 *C              9.146-11
 *CH             1.317-11
 CH2             1.144-11
 CH3             9.779-12
 CH2OH           1.282-12
 CH3O            3.171-13
 CH4             1.199-12
 CH3OH           3.590-14
 *CO             2.8991-1
 *CO2            9.3308-2
 COOH            6.2160-7
 C2H             9.092-16
 C2H2,acetylene  8.691-15
 CH2CO,ketene    7.294-14
 O(CH)2O         4.585-16
 C2O             2.718-12
 C3O2            6.447-16
 *H              7.0278-2
 HCO             1.4472-6
 HCCO            9.377-14
 HO2             1.4252-5
 *H2             1.2939-1
 HCHO,formaldehy 1.5486-8
 HCOOH           3.4253-8
 H2O             3.1412-1
 H2O2            8.3348-7
 *O              1.9624-2
 *OH             6.4608-2
 *O2             1.8758-2
 O3              4.0447-9

  * THERMODYNAMIC PROPERTIES FITTED TO 20000.K









         THERMODYNAMIC EQUILIBRIUM COMBUSTION PROPERTIES AT ASSIGNED

                                   PRESSURES

 CASE =                

             REACTANT                       MOLES         ENERGY      TEMP
                                                         KJ/KG-MOL      K
 FUEL        C3H8                         1.0000000   -104543.521    300.000
 OXIDANT     O2                           5.0000000        54.358    300.000

 O/F=    2.41889  %FUEL= 29.249218  R,EQ.RATIO= 1.500000  PHI,EQ.RATIO= 1.500000

 THERMODYNAMIC PROPERTIES

 P, BAR            1.0000
 T, K             3043.35
 RHO, KG/CU M    7.7788-2
 H, KJ/KG         -692.25
 U, KJ/KG        -1977.80
 G, KJ/KG        -43520.5
 S, KJ/(KG)(K)    14.0728

 M, (1/n)          19.683
 (dLV/dLP)t      -1.04915
 (dLV/dLT)p        1.9830
 Cp, KJ/(KG)(K)   10.6202
 GAMMAs            1.1201
 SON VEL,M/SEC     1200.0

 MOLE FRACTIONS

 *C              9.570-11
 *CH             1.564-11
 CH2             1.590-11
 CH3             1.610-11
 CH2OH           1.698-12
 CH3O            4.129-13
 CH4             2.305-12
 CH3OH           5.507-14
 *CO             3.0871-1
 *CO2            8.2976-2
 COOH            5.6469-7
 C2H             1.465-15
 C2H2,acetylene  1.712-14
 CH2CO,ketene    1.204-13
 O(CH)2O         6.062-16
 C2O             3.367-12
 C3O2            9.294-16
 *H              7.0510-2
 HCO             1.5883-6
 HCCO            1.316-13
 HO2             8.9059-6
 *H2             1.5288-1
 HCHO,formaldehy 1.9464-8
 HCOOH           3.5690-8
 H2O             3.0775-1
 H2O2            5.9626-7
 *O              1.3628-2
 *OH             5.2716-2
 *O2             1.0819-2
 O3              1.6687-9

  * THERMODYNAMIC PROPERTIES FITTED TO 20000.K









         THERMODYNAMIC EQUILIBRIUM COMBUSTION PROPERTIES AT ASSIGNED

                                   PRESSURES

 CASE =                

             REACTANT                       MOLES         ENERGY      TEMP
                                                         KJ/KG-MOL      K
 FUEL        C3H8                         1.0000000   -104543.521    300.000
 OXIDANT     O2                           5.0000000        54.358    300.000

 O/F=    2.26771  %FUEL= 30.602434  R,EQ.RATIO= 1.600000  PHI,EQ.RATIO= 1.600000

 THERMODYNAMIC PROPERTIES

 P, BAR            1.0000
 T, K             3005.57
 RHO, KG/CU M    7.6688-2
 H, KJ/KG         -724.35
 U, KJ/KG        -2028.33
 G, KJ/KG        -43707.8
 S, KJ/(KG)(K)    14.3013

 M, (1/n)          19.164
 (dLV/dLP)t      -1.03935
 (dLV/dLT)p        1.7917
 Cp, KJ/(KG)(K)    9.2597
 GAMMAs            1.1249
 SON VEL,M/SEC     1211.2

 MOLE FRACTIONS

 *C              9.143-11
 *CH             1.721-11
 CH2             2.108-11
 CH3             2.609-11
 CH2OH           2.178-12
 CH3O            5.168-13
 CH4             4.486-12
 CH3OH           8.373-14
 *CO             3.2594-1
 *CO2            7.3055-2
 COOH            4.9296-7
 C2H             2.230-15
 C2H2,acetylene  3.340-14
 C2H2,vinylidene 1.067-16
 CH2CO,ketene    1.967-13
 O(CH)2O         7.783-16
 C2O             3.952-12
 C3O2            1.307-15
 *H              6.8141-2
 HCO             1.6839-6
 HCCO            1.774-13
 HO2             5.0928-6
 *H2             1.7940-1
 HCHO,formaldehy 2.4080-8
 HCOOH           3.6437-8
 H2O             2.9807-1
 H2O2            3.9767-7
 *O              8.7364-3
 *OH             4.0899-2
 *O2             5.7380-3
 O3              5.921-10

  * THERMODYNAMIC PROPERTIES FITTED TO 20000.K









         THERMODYNAMIC EQUILIBRIUM COMBUSTION PROPERTIES AT ASSIGNED

                                   PRESSURES

 CASE =                

             REACTANT                       MOLES         ENERGY      TEMP
                                                         KJ/KG-MOL      K
 FUEL        C3H8                         1.0000000   -104543.521    300.000
 OXIDANT     O2                           5.0000000        54.358    300.000

 O/F=    2.13432  %FUEL= 31.904858  R,EQ.RATIO= 1.700000  PHI,EQ.RATIO= 1.700000

 THERMODYNAMIC PROPERTIES

 P, BAR            1.0000
 T, K             2956.40
 RHO, KG/CU M    7.5952-2
 H, KJ/KG         -755.26
 U, KJ/KG        -2071.87
 G, KJ/KG        -43665.3
 S, KJ/(KG)(K)    14.5143

 M, (1/n)          18.670
 (dLV/dLP)t      -1.03029
 (dLV/dLT)p        1.6141
 Cp, KJ/(KG)(K)    7.9212
 GAMMAs            1.1315
 SON VEL,M/SEC     1220.5

 MOLE FRACTIONS

 *C              7.889-11
 *CH             1.739-11
 CH2             2.649-11
 CH3             4.163-11
 CH2OH           2.696-12
 CH3O            6.195-13
 CH4             8.863-12
 CH3OH           1.262-13
 *CO             3.4150-1
 *CO2            6.3750-2
 COOH            4.1220-7
 *C2             1.086-16
 C2H             3.195-15
 C2H2,acetylene  6.461-14
 C2H2,vinylidene 1.840-16
 CH2CO,ketene    3.188-13
 O(CH)2O         9.701-16
 C2O             4.376-12
 C3O2            1.797-15
 *H              6.3091-2
 HCO             1.7194-6
 HCCO            2.292-13
 HO2             2.6344-6
 *H2             2.0882-1
 HCHO,formaldehy 2.9313-8
 HCOOH           3.6427-8
 H2O             2.8498-1
 H2O2            2.4500-7
 *O              5.1153-3
 *OH             2.9969-2
 *O2             2.7683-3
 O3              1.772-10

  * THERMODYNAMIC PROPERTIES FITTED TO 20000.K









         THERMODYNAMIC EQUILIBRIUM COMBUSTION PROPERTIES AT ASSIGNED

                                   PRESSURES

 CASE =                

             REACTANT                       MOLES         ENERGY      TEMP
                                                         KJ/KG-MOL      K
 FUEL        C3H8                         1.0000000   -104543.521    300.000
 OXIDANT     O2                           5.0000000        54.358    300.000

 O/F=    2.01575  %FUEL= 33.159295  R,EQ.RATIO= 1.800000  PHI,EQ.RATIO= 1.800000

 THERMODYNAMIC PROPERTIES

 P, BAR            1.0000
 T, K             2895.85
 RHO, KG/CU M    7.5579-2
 H, KJ/KG         -785.02
 U, KJ/KG        -2108.13
 G, KJ/KG        -43389.5
 S, KJ/(KG)(K)    14.7123

 M, (1/n)          18.198
 (dLV/dLP)t      -1.02268
 (dLV/dLT)p        1.4641
 Cp, KJ/(KG)(K)    6.7395
 GAMMAs            1.1398
 SON VEL,M/SEC     1228.0

 MOLE FRACTIONS

 *C              6.085-11
 *CH             1.599-11
 CH2             3.135-11
 CH3             6.511-11
 CH2OH           3.209-12
 CH3O            7.077-13
 CH4             1.776-11
 CH3OH           1.883-13
 *CO             3.5526-1
 *CO2            5.5266-2
 COOH            3.2957-7
 *C2             1.087-16
 C2H             4.273-15
 C2H2,acetylene  1.237-13
 C2H2,vinylidene 3.040-16
 CH2CO,ketene    5.120-13
 O(CH)2O         1.172-15
 CH3CO,acetyl    1.014-16
 C2O             4.553-12
 C3O2            2.416-15
 *H              5.5698-2
 HCO             1.6860-6
 HCCO            2.828-13
 HO2             1.2240-6
 *H2             2.4054-1
 HCHO,formaldehy 3.5053-8
 HCOOH           3.5651-8
 H2O             2.6867-1
 H2O2            1.3864-7
 *O              2.7163-3
 *OH             2.0645-2
 *O2             1.2079-3
 O3              4.429-11

  * THERMODYNAMIC PROPERTIES FITTED TO 20000.K









         THERMODYNAMIC EQUILIBRIUM COMBUSTION PROPERTIES AT ASSIGNED

                                   PRESSURES

 CASE =                

             REACTANT                       MOLES         ENERGY      TEMP
                                                         KJ/KG-MOL      K
 FUEL        C3H8                         1.0000000   -104543.521    300.000
 OXIDANT     O2                           5.0000000        54.358    300.000

 O/F=    1.90965  %FUEL= 34.368350  R,EQ.RATIO= 1.900000  PHI,EQ.RATIO= 1.900000

 THERMODYNAMIC PROPERTIES

 P, BAR            1.0000
 T, K             2824.67
 RHO, KG/CU M    7.5561-2
 H, KJ/KG         -813.70
 U, KJ/KG        -2137.14
 G, KJ/KG        -42888.8
 S, KJ/(KG)(K)    14.8956

 M, (1/n)          17.746
 (dLV/dLP)t      -1.01663
 (dLV/dLT)p        1.3445
 Cp, KJ/(KG)(K)    5.7644
 GAMMAs            1.1498
 SON VEL,M/SEC     1233.6

 MOLE FRACTIONS

 *C              4.164-11
 *CH             1.328-11
 CH2             3.470-11
 CH3             9.931-11
 CH2OH           3.657-12
 CH3O            7.672-13
 CH4             3.597-11
 CH3OH           2.771-13
 *CO             3.6719-1
 *CO2            4.7744-2
 COOH            2.5197-7
 C2H             5.301-15
 C2H2,acetylene  2.330-13
 C2H2,vinylidene 4.778-16
 CH2CO,ketene    8.133-13
 O(CH)2O         1.372-15
 CH3CO,acetyl    1.640-16
 C2O             4.435-12
 C3O2            3.179-15
 *H              4.6716-2
 HCO             1.5841-6
 HCCO            3.322-13
 HO2             5.0960-7
 *H2             2.7354-1
 HCHO,formaldehy 4.1111-8
 HCOOH           3.4180-8
 H2O             2.4968-1
 H2O2            7.1913-8
 *O              1.3038-3
 *OH             1.3341-2
 *O2             4.7611-4
 O3              9.214-12

  * THERMODYNAMIC PROPERTIES FITTED TO 20000.K









         THERMODYNAMIC EQUILIBRIUM COMBUSTION PROPERTIES AT ASSIGNED

                                   PRESSURES

 CASE =                

             REACTANT                       MOLES         ENERGY      TEMP
                                                         KJ/KG-MOL      K
 FUEL        C3H8                         1.0000000   -104543.521    300.000
 OXIDANT     O2                           5.0000000        54.358    300.000

 O/F=    1.81417  %FUEL= 35.534442  R,EQ.RATIO= 2.000000  PHI,EQ.RATIO= 2.000000

 THERMODYNAMIC PROPERTIES

 P, BAR            1.0000
 T, K             2744.05
 RHO, KG/CU M    7.5886-2
 H, KJ/KG         -841.37
 U, KJ/KG        -2159.13
 G, KJ/KG        -42179.6
 S, KJ/(KG)(K)    15.0647

 M, (1/n)          17.314
 (dLV/dLP)t      -1.01194
 (dLV/dLT)p        1.2515
 Cp, KJ/(KG)(K)    4.9806
 GAMMAs            1.1615
 SON VEL,M/SEC     1237.2

 MOLE FRACTIONS

 *C              2.513-11
 *CH             9.900-12
 CH2             3.577-11
 CH3             1.473-10
 CH2OH           3.983-12
 CH3O            7.877-13
 CH4             7.350-11
 CH3OH           4.019-13
 *CO             3.7734-1
 *CO2            4.1228-2
 COOH            1.8434-7
 C2H             6.065-15
 C2H2,acetylene  4.311-13
 C2H2,vinylidene 7.111-16
 CH2CO,ketene    1.276-12
 O(CH)2O         1.556-15
 CH3CO,acetyl    2.577-16
 C2O             4.034-12
 C3O2            4.094-15
 *H              3.7129-2
 HCO             1.4244-6
 HCCO            3.706-13
 HO2             1.8989-7
 *H2             3.0665-1
 HCHO,formaldehy 4.7262-8
 HCOOH           3.2149-8
 H2O             2.2884-1
 H2O2            3.4169-8
 *O              5.6436-4
 *OH             8.0764-3
 *O2             1.6945-4
 O3              1.594-12

  * THERMODYNAMIC PROPERTIES FITTED TO 20000.K



