
 *******************************************************************************

         NASA-GLENN CHEMICAL EQUILIBRIUM PROGRAM CEA2, MAY 21, 2004
                   BY  BONNIE MCBRIDE AND SANFORD GORDON
      REFS: NASA RP-1311, PART I, 1994 AND NASA RP-1311, PART II, 1996

 *******************************************************************************



 problem    phi,eq.ratio=0.5,0.6,0.7,0.8,0.9,1,1.1,1.2,1.3,1.4,1.5,1.6,1.7,1.8,1.
 9,2,
     hp   p,bar=1,  t,k=3800
 react
   fuel=C6H6 moles=1  t,k=300
   oxid=O2 moles=7.5  t,k=300
   oxid=N2 moles=28.2143  t,k=300
 output  short   trace=1e-16
 end




         THERMODYNAMIC EQUILIBRIUM COMBUSTION PROPERTIES AT ASSIGNED

                                   PRESSURES

 CASE =                

             REACTANT                       MOLES         ENERGY      TEMP
                                                         KJ/KG-MOL      K
 FUEL        C6H6                         1.0000000     83032.119    300.000
 OXIDANT     O2                           7.5000000        54.358    300.000
 OXIDANT     N2                          28.2143000        53.881    300.000

 O/F=   26.38190  %FUEL=  3.652047  R,EQ.RATIO= 0.500000  PHI,EQ.RATIO= 0.500000

 THERMODYNAMIC PROPERTIES

 P, BAR            1.0000
 T, K             1564.97
 RHO, KG/CU M    2.2539-1
 H, KJ/KG          40.624
 U, KJ/KG         -403.06
 G, KJ/KG        -13626.4
 S, KJ/(KG)(K)     8.7331

 M, (1/n)          29.327
 (dLV/dLP)t      -1.00001
 (dLV/dLT)p        1.0003
 Cp, KJ/(KG)(K)    1.3055
 GAMMAs            1.2776
 SON VEL,M/SEC      752.9

 MOLE FRACTIONS

 *CO             3.1975-6
 *CO2            8.2267-2
 COOH            1.388-12
 *H              2.7852-8
 HCO             1.100-16
 HNCO            1.289-15
 HNO             2.584-10
 HNO2            2.7093-8
 HNO3            1.274-11
 HO2             1.1842-7
 *H2             5.5856-7
 HCOOH           6.337-14
 H2O             4.1092-2
 H2O2            3.9522-9
 *N              2.627-13
 *NH             8.822-15
 NH2             2.648-15
 NH3             1.895-14
 *NO             1.1468-3
 NO2             3.5672-6
 NO3             1.721-12
 *N2             7.7316-1
 N2O             6.8570-8
 N2O3            1.307-14
 *O              3.0222-6
 *OH             8.4457-5
 *O2             1.0224-1
 O3              1.677-10

  * THERMODYNAMIC PROPERTIES FITTED TO 20000.K









         THERMODYNAMIC EQUILIBRIUM COMBUSTION PROPERTIES AT ASSIGNED

                                   PRESSURES

 CASE =                

             REACTANT                       MOLES         ENERGY      TEMP
                                                         KJ/KG-MOL      K
 FUEL        C6H6                         1.0000000     83032.119    300.000
 OXIDANT     O2                           7.5000000        54.358    300.000
 OXIDANT     N2                          28.2143000        53.881    300.000

 O/F=   21.98492  %FUEL=  4.350679  R,EQ.RATIO= 0.600000  PHI,EQ.RATIO= 0.600000

 THERMODYNAMIC PROPERTIES

 P, BAR            1.0000
 T, K             1769.70
 RHO, KG/CU M    1.9993-1
 H, KJ/KG          48.037
 U, KJ/KG         -452.15
 G, KJ/KG        -15688.2
 S, KJ/(KG)(K)     8.8921

 M, (1/n)          29.417
 (dLV/dLP)t      -1.00005
 (dLV/dLT)p        1.0018
 Cp, KJ/(KG)(K)    1.3621
 GAMMAs            1.2629
 SON VEL,M/SEC      794.8

 MOLE FRACTIONS

 *CO             5.1634-5
 *CO2            9.8258-2
 COOH            2.846-11
 *H              7.3031-7
 HCO             2.396-14
 HNCO            6.939-14
 HNO             1.9571-9
 HNO2            3.7999-8
 HNO3            1.006-11
 HO2             3.5361-7
 *H2             6.9581-6
 HCHO,formaldehy 1.523-16
 HCOOH           1.085-12
 H2O             4.8966-2
 H2O2            1.1030-8
 *N              1.853-11
 NCO             2.676-15
 *NH             7.422-13
 NH2             1.686-13
 NH3             5.045-13
 NH2OH           2.055-16
 *NO             2.2928-3
 NO2             3.8329-6
 NO3             2.417-12
 *N2             7.6933-1
 N2O             1.3118-7
 N2O3            2.173-14
 *O              2.5815-5
 *OH             3.6290-4
 *O2             8.0700-2
 O3              4.292-10

  * THERMODYNAMIC PROPERTIES FITTED TO 20000.K









         THERMODYNAMIC EQUILIBRIUM COMBUSTION PROPERTIES AT ASSIGNED

                                   PRESSURES

 CASE =                

             REACTANT                       MOLES         ENERGY      TEMP
                                                         KJ/KG-MOL      K
 FUEL        C6H6                         1.0000000     83032.119    300.000
 OXIDANT     O2                           7.5000000        54.358    300.000
 OXIDANT     N2                          28.2143000        53.881    300.000

 O/F=   18.84422  %FUEL=  5.039252  R,EQ.RATIO= 0.700000  PHI,EQ.RATIO= 0.700000

 THERMODYNAMIC PROPERTIES

 P, BAR            1.0000
 T, K             1960.11
 RHO, KG/CU M    1.8099-1
 H, KJ/KG          55.344
 U, KJ/KG         -497.17
 G, KJ/KG        -17642.5
 S, KJ/(KG)(K)     9.0290

 M, (1/n)          29.497
 (dLV/dLP)t      -1.00022
 (dLV/dLT)p        1.0077
 Cp, KJ/(KG)(K)    1.4527
 GAMMAs            1.2451
 SON VEL,M/SEC      829.4

 MOLE FRACTIONS

 *CO             4.3870-4
 *CO2            1.1374-1
 COOH            2.836-10
 *H              8.6523-6
 HCN             4.580-15
 HCO             1.467-12
 HNC             2.141-16
 HNCO            1.512-12
 HNO             8.6405-9
 HNO2            4.4840-8
 HNO3            7.300-12
 HO2             7.2736-7
 *H2             4.9163-5
 HCHO,formaldehy 8.949-15
 HCOOH           9.949-12
 H2O             5.6513-2
 H2O2            2.2519-8
 *N              4.382-10
 NCO             1.182-13
 *NH             2.078-11
 NH2             4.002-12
 NH3             6.535-12
 NH2OH           2.358-15
 *NO             3.5860-3
 NO2             3.5492-6
 NO3             2.571-12
 *N2             7.6521-1
 N2O             2.0002-7
 N2O3            2.625-14
 N3              7.507-16
 *O              1.1915-4
 *OH             1.0430-3
 *O2             5.9294-2
 O3              7.128-10

  * THERMODYNAMIC PROPERTIES FITTED TO 20000.K









         THERMODYNAMIC EQUILIBRIUM COMBUSTION PROPERTIES AT ASSIGNED

                                   PRESSURES

 CASE =                

             REACTANT                       MOLES         ENERGY      TEMP
                                                         KJ/KG-MOL      K
 FUEL        C6H6                         1.0000000     83032.119    300.000
 OXIDANT     O2                           7.5000000        54.358    300.000
 OXIDANT     N2                          28.2143000        53.881    300.000

 O/F=   16.48869  %FUEL=  5.717981  R,EQ.RATIO= 0.800000  PHI,EQ.RATIO= 0.800000

 THERMODYNAMIC PROPERTIES

 P, BAR            1.0000
 T, K             2129.09
 RHO, KG/CU M    1.6690-1
 H, KJ/KG          62.546
 U, KJ/KG         -536.62
 G, KJ/KG        -19415.8
 S, KJ/(KG)(K)     9.1487

 M, (1/n)          29.545
 (dLV/dLP)t      -1.00088
 (dLV/dLT)p        1.0278
 Cp, KJ/(KG)(K)    1.6495
 GAMMAs            1.2185
 SON VEL,M/SEC      854.5

 MOLE FRACTIONS

 *CN             1.633-15
 *CO             2.3463-3
 *CO2            1.2742-1
 COOH            1.6433-9
 *H              5.6812-5
 HCN             2.195-13
 HCO             3.562-11
 HNC             1.389-14
 HNCO            1.717-11
 HNO             2.4900-8
 HNO2            4.4206-8
 HNO3            4.575-12
 HO2             1.0775-6
 *H2             2.3218-4
 HCHO,formaldehy 2.235-13
 HCOOH           5.765-11
 H2O             6.3534-2
 H2O2            3.5085-8
 *N              4.5270-9
 NCO             2.142-12
 *NH             2.563-10
 NH2             4.620-11
 NH3             5.106-11
 NH2OH           1.540-14
 *NO             4.5195-3
 NO2             2.7630-6
 NO3             2.020-12
 *N2             7.6050-1
 N2H2            1.140-15
 N2O             2.4853-7
 N2O3            2.266-14
 N3              6.430-15
 N3H             5.127-16
 *O              3.3462-4
 *OH             2.1759-3
 *O2             3.8880-2
 O3              7.805-10

  * THERMODYNAMIC PROPERTIES FITTED TO 20000.K









         THERMODYNAMIC EQUILIBRIUM COMBUSTION PROPERTIES AT ASSIGNED

                                   PRESSURES

 CASE =                

             REACTANT                       MOLES         ENERGY      TEMP
                                                         KJ/KG-MOL      K
 FUEL        C6H6                         1.0000000     83032.119    300.000
 OXIDANT     O2                           7.5000000        54.358    300.000
 OXIDANT     N2                          28.2143000        53.881    300.000

 O/F=   14.65661  %FUEL=  6.387078  R,EQ.RATIO= 0.900000  PHI,EQ.RATIO= 0.900000

 THERMODYNAMIC PROPERTIES

 P, BAR            1.0000
 T, K             2261.37
 RHO, KG/CU M    1.5701-1
 H, KJ/KG          69.646
 U, KJ/KG         -567.27
 G, KJ/KG        -20858.1
 S, KJ/(KG)(K)     9.2545

 M, (1/n)          29.521
 (dLV/dLP)t      -1.00252
 (dLV/dLT)p        1.0746
 Cp, KJ/(KG)(K)    2.0402
 GAMMAs            1.1861
 SON VEL,M/SEC      869.2

 MOLE FRACTIONS

 *CN             4.892-14
 *CO             8.4496-3
 *CO2            1.3638-1
 COOH            5.8442-9
 *H              2.2228-4
 HCN             4.458-12
 HCO             3.905-10
 HNC             3.464-13
 HNCO            1.124-10
 HNO             4.7733-8
 HNO2            3.4980-8
 HNO3            2.283-12
 HO2             1.1240-6
 *H2             7.8991-4
 HCHO,formaldehy 2.724-12
 HCOOH           2.241-10
 H2O             6.9844-2
 H2O2            4.1271-8
 *N              2.2063-8
 NCO             1.768-11
 *NH             1.5330-9
 NH2             2.880-10
 NH3             2.661-10
 NH2OH           6.114-14
 *NO             4.5181-3
 NO2             1.7078-6
 NO3             1.078-12
 *N2             7.5447-1
 N2H2            7.859-15
 N2O             2.4642-7
 N2O3            1.288-14
 N3              2.754-14
 N3H             2.514-15
 *O              5.7784-4
 *OH             3.3402-3
 *O2             2.1405-2
 O3              5.245-10

  * THERMODYNAMIC PROPERTIES FITTED TO 20000.K









         THERMODYNAMIC EQUILIBRIUM COMBUSTION PROPERTIES AT ASSIGNED

                                   PRESSURES

 CASE =                

             REACTANT                       MOLES         ENERGY      TEMP
                                                         KJ/KG-MOL      K
 FUEL        C6H6                         1.0000000     83032.119    300.000
 OXIDANT     O2                           7.5000000        54.358    300.000
 OXIDANT     N2                          28.2143000        53.881    300.000

 O/F=   13.19095  %FUEL=  7.046744  R,EQ.RATIO= 1.000000  PHI,EQ.RATIO= 1.000000

 THERMODYNAMIC PROPERTIES

 P, BAR            1.0000
 T, K             2341.26
 RHO, KG/CU M    1.5095-1
 H, KJ/KG          76.646
 U, KJ/KG         -585.83
 G, KJ/KG        -21811.7
 S, KJ/(KG)(K)     9.3490

 M, (1/n)          29.384
 (dLV/dLP)t      -1.00431
 (dLV/dLT)p        1.1240
 Cp, KJ/(KG)(K)    2.4318
 GAMMAs            1.1664
 SON VEL,M/SEC      879.0

 MOLE FRACTIONS

 *C              3.569-16
 *CN             5.226-13
 *CO             2.1639-2
 *CO2            1.3741-1
 COOH            1.3171-8
 *H              5.4421-4
 HCN             4.452-11
 HCO             2.1320-9
 HNC             3.871-12
 HNCO            4.615-10
 HNO             6.0310-8
 HNO2            2.0788-8
 HNO3            8.067-13
 HO2             7.7944-7
 *H2             2.0702-3
 HCHO,formaldehy 1.825-11
 HCOOH           6.141-10
 H2O             7.5313-2
 H2O2            3.5367-8
 *N              5.2509-8
 NCO             7.123-11
 *NH             4.7204-9
 NH2             1.0492-9
 NH3             1.0171-9
 NH2OH           1.542-13
 *NO             3.4454-3
 NO2             7.6577-7
 NO3             3.413-13
 *N2             7.4620-1
 N2H2            3.024-14
 N2O             1.8669-7
 N2O3            4.209-15
 N3              6.067-14
 N3H             6.902-15
 *O              5.9715-4
 *OH             3.7405-3
 *O2             9.0327-3
 O3              1.896-10

  * THERMODYNAMIC PROPERTIES FITTED TO 20000.K









         THERMODYNAMIC EQUILIBRIUM COMBUSTION PROPERTIES AT ASSIGNED

                                   PRESSURES

 CASE =                

             REACTANT                       MOLES         ENERGY      TEMP
                                                         KJ/KG-MOL      K
 FUEL        C6H6                         1.0000000     83032.119    300.000
 OXIDANT     O2                           7.5000000        54.358    300.000
 OXIDANT     N2                          28.2143000        53.881    300.000

 O/F=   11.99177  %FUEL=  7.697178  R,EQ.RATIO= 1.100000  PHI,EQ.RATIO= 1.100000

 THERMODYNAMIC PROPERTIES

 P, BAR            1.0000
 T, K             2360.26
 RHO, KG/CU M    1.4838-1
 H, KJ/KG          83.548
 U, KJ/KG         -590.40
 G, KJ/KG        -22183.0
 S, KJ/(KG)(K)     9.4340

 M, (1/n)          29.119
 (dLV/dLP)t      -1.00337
 (dLV/dLT)p        1.0970
 Cp, KJ/(KG)(K)    2.2210
 GAMMAs            1.1783
 SON VEL,M/SEC      891.1

 MOLE FRACTIONS

 *C              1.885-15
 *CH             2.192-16
 CH2             4.398-16
 CH3             1.273-15
 CH2OH           4.349-16
 CH4             3.574-16
 *CN             2.436-12
 *CO             4.2946-2
 *CO2            1.2922-1
 COOH            1.9809-8
 C2O             3.088-16
 *H              8.8854-4
 HCN             2.721-10
 HCO             6.6939-9
 HNC             2.427-11
 HNCO            1.3494-9
 HNO             4.9321-8
 HNO2            8.3875-9
 HNO3            1.694-13
 HO2             3.2778-7
 *H2             4.5700-3
 HCHO,formaldehy 7.995-11
 HCOOH           1.2856-9
 H2O             7.9569-2
 H2O2            2.0779-8
 *N              6.3581-8
 NCO             1.558-10
 *NH             8.0691-9
 NH2             2.4812-9
 NH3             3.2372-9
 NH2OH           2.616-13
 *NO             1.8860-3
 NO2             2.1764-7
 NO3             5.251-14
 *N2             7.3503-1
 N2H2            7.198-14
 N2O             1.0142-7
 N2O3            6.483-16
 N3              7.129-14
 N3H             1.135-14
 *O              3.5255-4
 *OH             2.9940-3
 *O2             2.5478-3
 O3              3.026-11

  * THERMODYNAMIC PROPERTIES FITTED TO 20000.K









         THERMODYNAMIC EQUILIBRIUM COMBUSTION PROPERTIES AT ASSIGNED

                                   PRESSURES

 CASE =                

             REACTANT                       MOLES         ENERGY      TEMP
                                                         KJ/KG-MOL      K
 FUEL        C6H6                         1.0000000     83032.119    300.000
 OXIDANT     O2                           7.5000000        54.358    300.000
 OXIDANT     N2                          28.2143000        53.881    300.000

 O/F=   10.99246  %FUEL=  8.338573  R,EQ.RATIO= 1.200000  PHI,EQ.RATIO= 1.200000

 THERMODYNAMIC PROPERTIES

 P, BAR            1.0000
 T, K             2324.04
 RHO, KG/CU M    1.4875-1
 H, KJ/KG          90.353
 U, KJ/KG         -581.90
 G, KJ/KG        -22012.1
 S, KJ/(KG)(K)     9.5103

 M, (1/n)          28.744
 (dLV/dLP)t      -1.00144
 (dLV/dLT)p        1.0417
 Cp, KJ/(KG)(K)    1.7753
 GAMMAs            1.2127
 SON VEL,M/SEC      902.9

 MOLE FRACTIONS

 *C              3.643-15
 *CH             6.504-16
 CH2             2.150-15
 CH3             1.053-14
 CH2OH           1.783-15
 CH3O            2.467-16
 CH4             4.892-15
 CH3OH           1.323-16
 *CN             5.842-12
 *CO             7.0064-2
 *CO2            1.1404-1
 COOH            2.1125-8
 CH2CO,ketene    1.747-16
 OCCN            1.429-16
 C2O             1.244-15
 *H              1.0320-3
 HCN             1.1548-9
 HCO             1.3475-8
 HNC             9.806-11
 HNCO            3.0408-9
 HNO             2.7190-8
 HNO2            2.3143-9
 HNO3            2.111-14
 HO2             8.5562-8
 *H2             8.8547-3
 HCHO,formaldehy 2.529-10
 HCOOH           2.1627-9
 H2O             8.1803-2
 H2O2            8.4970-9
 *N              4.2985-8
 NCO             2.059-10
 *NH             8.3767-9
 NH2             4.1122-9
 NH3             9.0293-9
 NH2OH           3.148-13
 *NO             7.5484-4
 NO2             3.9529-8
 NO3             3.994-15
 *N2             7.2108-1
 N2H2            1.150-13
 N2O             4.0212-8
 N3              4.866-14
 N3H             1.209-14
 *O              1.2501-4
 *OH             1.7617-3
 *O2             4.8097-4
 O3              2.198-12

  * THERMODYNAMIC PROPERTIES FITTED TO 20000.K









         THERMODYNAMIC EQUILIBRIUM COMBUSTION PROPERTIES AT ASSIGNED

                                   PRESSURES

 CASE =                

             REACTANT                       MOLES         ENERGY      TEMP
                                                         KJ/KG-MOL      K
 FUEL        C6H6                         1.0000000     83032.119    300.000
 OXIDANT     O2                           7.5000000        54.358    300.000
 OXIDANT     N2                          28.2143000        53.881    300.000

 O/F=   10.14689  %FUEL=  8.971116  R,EQ.RATIO= 1.300000  PHI,EQ.RATIO= 1.300000

 THERMODYNAMIC PROPERTIES

 P, BAR            1.0000
 T, K             2259.75
 RHO, KG/CU M    1.5076-1
 H, KJ/KG          97.065
 U, KJ/KG         -566.25
 G, KJ/KG        -21549.1
 S, KJ/(KG)(K)     9.5790

 M, (1/n)          28.325
 (dLV/dLP)t      -1.00064
 (dLV/dLT)p        1.0183
 Cp, KJ/(KG)(K)    1.5807
 GAMMAs            1.2375
 SON VEL,M/SEC      906.0

 MOLE FRACTIONS

 *C              3.664-15
 *CH             1.024-15
 CH2             6.025-15
 CH3             5.528-14
 CH2OH           4.843-15
 CH3O            6.287-16
 CH4             4.611-14
 CH3OH           6.164-16
 *CN             8.837-12
 *CO             9.7992-2
 *CO2            9.7198-2
 COOH            1.8050-8
 CH2CO,ketene    1.095-15
 OCCN            3.533-16
 C2O             2.760-15
 *H              9.6148-4
 HCN             3.5542-9
 HCO             1.9643-8
 HCCO            1.689-16
 HNC             2.755-10
 HNCO            5.5044-9
 HNO             1.2202-8
 HNO2            5.475-10
 HNO3            2.177-15
 HO2             1.8129-8
 *H2             1.5038-2
 HCHO,formaldehy 6.015-10
 HCOOH           3.0379-9
 H2O             8.1634-2
 H2O2            2.9209-9
 *N              2.0954-8
 NCO             1.964-10
 *NH             6.3826-9
 NH2             5.2655-9
 NH3             2.1428-8
 NH2OH           2.992-13
 *NO             2.6483-4
 NO2             6.1001-9
 NO3             2.336-16
 *N2             7.0591-1
 N2H2            1.388-13
 N2O             1.3972-8
 N3              2.450-14
 N3H             9.814-15
 *O              3.4798-5
 *OH             8.8507-4
 *O2             7.9153-5
 O3              1.173-13

  * THERMODYNAMIC PROPERTIES FITTED TO 20000.K









         THERMODYNAMIC EQUILIBRIUM COMBUSTION PROPERTIES AT ASSIGNED

                                   PRESSURES

 CASE =                

             REACTANT                       MOLES         ENERGY      TEMP
                                                         KJ/KG-MOL      K
 FUEL        C6H6                         1.0000000     83032.119    300.000
 OXIDANT     O2                           7.5000000        54.358    300.000
 OXIDANT     N2                          28.2143000        53.881    300.000

 O/F=    9.42211  %FUEL=  9.594988  R,EQ.RATIO= 1.400000  PHI,EQ.RATIO= 1.400000

 THERMODYNAMIC PROPERTIES

 P, BAR            1.0000
 T, K             2187.63
 RHO, KG/CU M    1.5342-1
 H, KJ/KG          103.69
 U, KJ/KG         -548.12
 G, KJ/KG        -20987.2
 S, KJ/(KG)(K)     9.6410

 M, (1/n)          27.906
 (dLV/dLP)t      -1.00035
 (dLV/dLT)p        1.0098
 Cp, KJ/(KG)(K)    1.5105
 GAMMAs            1.2512
 SON VEL,M/SEC      903.1

 MOLE FRACTIONS

 *C              2.609-15
 *CH             1.119-15
 CH2             1.180-14
 CH3             2.061-13
 CH2OH           9.878-15
 CH3O            1.190-15
 CH4             3.117-13
 CH3OH           2.155-15
 *CN             1.025-11
 *CO             1.2391-1
 *CO2            8.1766-2
 COOH            1.3721-8
 C2H2,acetylene  2.510-16
 CH2CO,ketene    4.747-15
 OCCN            6.244-16
 C2O             4.279-15
 *H              7.9649-4
 HCN             8.6604-9
 HCO             2.3513-8
 HCCO            3.971-16
 HNC             6.021-10
 HNCO            8.5487-9
 HNO             5.0908-9
 HNO2            1.277-10
 HNO3            2.266-16
 HO2             3.7000-9
 *H2             2.2942-2
 HCHO,formaldehy 1.1632-9
 HCOOH           3.7649-9
 H2O             7.9285-2
 H2O2            9.561-10
 *N              8.9199-9
 NCO             1.578-10
 *NH             4.1668-9
 NH2             5.7495-9
 NH3             4.3977-8
 NH2OH           2.479-13
 *NO             9.1364-5
 NO2             9.491-10
 *N2             6.9077-1
 N2H2            1.418-13
 N2O             4.7774-9
 N3              1.088-14
 N3H             6.936-15
 *O              9.0967-6
 *OH             4.2113-4
 *O2             1.3268-5
 O3              6.173-15

  * THERMODYNAMIC PROPERTIES FITTED TO 20000.K









         THERMODYNAMIC EQUILIBRIUM COMBUSTION PROPERTIES AT ASSIGNED

                                   PRESSURES

 CASE =                

             REACTANT                       MOLES         ENERGY      TEMP
                                                         KJ/KG-MOL      K
 FUEL        C6H6                         1.0000000     83032.119    300.000
 OXIDANT     O2                           7.5000000        54.358    300.000
 OXIDANT     N2                          28.2143000        53.881    300.000

 O/F=    8.79397  %FUEL= 10.210367  R,EQ.RATIO= 1.500000  PHI,EQ.RATIO= 1.500000

 THERMODYNAMIC PROPERTIES

 P, BAR            1.0000
 T, K             2114.57
 RHO, KG/CU M    1.5640-1
 H, KJ/KG          110.22
 U, KJ/KG         -529.17
 G, KJ/KG        -20394.8
 S, KJ/(KG)(K)     9.6970

 M, (1/n)          27.498
 (dLV/dLP)t      -1.00021
 (dLV/dLT)p        1.0060
 Cp, KJ/(KG)(K)    1.4811
 GAMMAs            1.2601
 SON VEL,M/SEC      897.6

 MOLE FRACTIONS

 *C              1.521-15
 *CH             9.809-16
 CH2             1.837-14
 CH3             6.085-13
 CH2OH           1.662-14
 CH3O            1.847-15
 CH4             1.658-12
 CH3OH           6.145-15
 *CN             1.014-11
 *CO             1.4719-1
 *CO2            6.8468-2
 COOH            9.7281-9
 C2H2,acetylene  1.201-15
 CH2CO,ketene    1.611-14
 OCCN            8.990-16
 C2O             5.340-15
 *H              6.1404-4
 HCN             1.8092-8
 HCO             2.4875-8
 HCCO            7.350-16
 HNC             1.1178-9
 HNCO            1.2008-8
 HNO             2.0486-9
 HNO2            2.997-11
 HO2             7.502-10
 *H2             3.2353-2
 HCHO,formaldehy 1.9551-9
 HCOOH           4.2846-9
 H2O             7.5073-2
 H2O2            3.055-10
 *N              3.5429-9
 NCO             1.149-10
 *NH             2.4837-9
 NH2             5.6515-9
 NH3             8.0893-8
 NH2OH           1.872-13
 *NO             3.1636-5
 NO2             1.520-10
 *N2             6.7607-1
 N2H2            1.299-13
 N2O             1.6414-9
 N3              4.538-15
 N3H             4.518-15
 *O              2.3311-6
 *OH             1.9492-4
 *O2             2.3005-6
 O3              3.352-16

  * THERMODYNAMIC PROPERTIES FITTED TO 20000.K









         THERMODYNAMIC EQUILIBRIUM COMBUSTION PROPERTIES AT ASSIGNED

                                   PRESSURES

 CASE =                

             REACTANT                       MOLES         ENERGY      TEMP
                                                         KJ/KG-MOL      K
 FUEL        C6H6                         1.0000000     83032.119    300.000
 OXIDANT     O2                           7.5000000        54.358    300.000
 OXIDANT     N2                          28.2143000        53.881    300.000

 O/F=    8.24434  %FUEL= 10.817425  R,EQ.RATIO= 1.600000  PHI,EQ.RATIO= 1.600000

 THERMODYNAMIC PROPERTIES

 P, BAR            1.0000
 T, K             2042.54
 RHO, KG/CU M    1.5960-1
 H, KJ/KG          116.66
 U, KJ/KG         -509.91
 G, KJ/KG        -19793.7
 S, KJ/(KG)(K)     9.7478

 M, (1/n)          27.104
 (dLV/dLP)t      -1.00014
 (dLV/dLT)p        1.0038
 Cp, KJ/(KG)(K)    1.4666
 GAMMAs            1.2668
 SON VEL,M/SEC      890.9

 MOLE FRACTIONS

 *C              7.731-16
 *CH             7.376-16
 CH2             2.434-14
 CH3             1.525-12
 CH2OH           2.435-14
 CH3O            2.489-15
 CH4             7.455-12
 CH3OH           1.512-14
 *CN             9.020-12
 *CO             1.6798-1
 *CO2            5.7233-2
 COOH            6.5583-9
 C2H2,acetylene  4.691-15
 CH2CO,ketene    4.636-14
 OCCN            1.132-15
 C2N2            1.910-16
 C2O             5.777-15
 C3O2            1.303-16
 *H              4.4877-4
 HCN             3.4080-8
 HCO             2.4153-8
 HCCO            1.159-15
 HNC             1.8586-9
 HNCO            1.5751-8
 HNO             7.992-10
 HNO2            7.000-12
 HO2             1.500-10
 *H2             4.2989-2
 HCHO,formaldehy 2.9775-9
 HCOOH           4.5816-9
 H2O             6.9350-2
 H2O2            9.494-11
 *N              1.3380-9
 NCO             7.837-11
 *NH             1.3839-9
 NH2             5.1350-9
 NH3             1.3698-7
 NH2OH           1.313-13
 *NO             1.0939-5
 NO2             2.467-11
 *N2             6.6190-1
 N2H2            1.100-13
 N2O             5.639-10
 N3              1.807-15
 N3H             2.771-15
 *O              5.8632-7
 *OH             8.7956-5
 *O2             4.0551-7

  * THERMODYNAMIC PROPERTIES FITTED TO 20000.K









         THERMODYNAMIC EQUILIBRIUM COMBUSTION PROPERTIES AT ASSIGNED

                                   PRESSURES

 CASE =                

             REACTANT                       MOLES         ENERGY      TEMP
                                                         KJ/KG-MOL      K
 FUEL        C6H6                         1.0000000     83032.119    300.000
 OXIDANT     O2                           7.5000000        54.358    300.000
 OXIDANT     N2                          28.2143000        53.881    300.000

 O/F=    7.75938  %FUEL= 11.416329  R,EQ.RATIO= 1.700000  PHI,EQ.RATIO= 1.700000

 THERMODYNAMIC PROPERTIES

 P, BAR            1.0000
 T, K             1972.09
 RHO, KG/CU M    1.6299-1
 H, KJ/KG          123.01
 U, KJ/KG         -490.52
 G, KJ/KG        -19191.2
 S, KJ/(KG)(K)     9.7938

 M, (1/n)          26.726
 (dLV/dLP)t      -1.00009
 (dLV/dLT)p        1.0025
 Cp, KJ/(KG)(K)    1.4585
 GAMMAs            1.2727
 SON VEL,M/SEC      883.7

 MOLE FRACTIONS

 *C              3.537-16
 *CH             4.936-16
 CH2             2.863-14
 CH3             3.395-12
 CH2OH           3.211-14
 CH3O            3.012-15
 CH4             2.977-11
 CH3OH           3.336-14
 *CN             7.423-12
 *CO             1.8660-1
 *CO2            4.7760-2
 COOH            4.2379-9
 C2H2,acetylene  1.596-14
 CH2CO,ketene    1.190-13
 OCCN            1.298-15
 C2N2            4.137-16
 C2O             5.647-15
 C3O2            2.458-16
 *H              3.1356-4
 HCN             5.9806-8
 HCO             2.1981-8
 HCCO            1.632-15
 HNC             2.8613-9
 HNCO            1.9675-8
 HNO             3.012-10
 HNO2            1.602-12
 HO2             2.913-11
 *H2             5.4519-2
 HCHO,formaldehy 4.2170-9
 HCOOH           4.6642-9
 H2O             6.2487-2
 H2O2            2.841-11
 *N              4.824-10
 NCO             5.082-11
 *NH             7.277-10
 NH2             4.3755-9
 NH3             2.1758-7
 NH2OH           8.616-14
 *NO             3.7399-6
 NO2             3.970-12
 *N2             6.4827-1
 N2H2            8.719-14
 N2O             1.918-10
 N3              6.904-16
 N3H             1.616-15
 *O              1.4350-7
 *OH             3.8534-5
 *O2             7.1104-8

  * THERMODYNAMIC PROPERTIES FITTED TO 20000.K









         THERMODYNAMIC EQUILIBRIUM COMBUSTION PROPERTIES AT ASSIGNED

                                   PRESSURES

 CASE =                

             REACTANT                       MOLES         ENERGY      TEMP
                                                         KJ/KG-MOL      K
 FUEL        C6H6                         1.0000000     83032.119    300.000
 OXIDANT     O2                           7.5000000        54.358    300.000
 OXIDANT     N2                          28.2143000        53.881    300.000

 O/F=    7.32831  %FUEL= 12.007243  R,EQ.RATIO= 1.800000  PHI,EQ.RATIO= 1.800000

 THERMODYNAMIC PROPERTIES

 P, BAR            1.0000
 T, K             1903.32
 RHO, KG/CU M    1.6658-1
 H, KJ/KG          129.28
 U, KJ/KG         -471.03
 G, KJ/KG        -18590.1
 S, KJ/(KG)(K)     9.8351

 M, (1/n)          26.362
 (dLV/dLP)t      -1.00006
 (dLV/dLT)p        1.0017
 Cp, KJ/(KG)(K)    1.4535
 GAMMAs            1.2782
 SON VEL,M/SEC      876.0

 MOLE FRACTIONS

 *C              1.482-16
 *CH             3.007-16
 CH2             3.072-14
 CH3             6.941-12
 CH2OH           3.900-14
 CH3O            3.345-15
 CH4             1.097-10
 CH3OH           6.783-14
 *CN             5.757-12
 *CO             2.0344-1
 *CO2            3.9693-2
 COOH            2.6299-9
 C2H2,acetylene  4.955-14
 CH2CO,ketene    2.830-13
 OCCN            1.392-15
 C2N2            8.421-16
 C2O             5.124-15
 C3O2            4.344-16
 *H              2.1033-4
 HCN             1.0011-7
 HCO             1.8984-8
 HCCO            2.117-15
 HNC             4.1753-9
 HNCO            2.3711-8
 HNO             1.089-10
 HNO2            3.531-13
 HO2             5.396-12
 *H2             6.6612-2
 HCHO,formaldehy 5.6531-9
 HCOOH           4.5529-9
 H2O             5.4843-2
 H2O2            8.080-12
 *N              1.659-10
 NCO             3.157-11
 *NH             3.625-10
 NH2             3.5276-9
 NH3             3.2883-7
 NH2OH           5.311-14
 *NO             1.2496-6
 NO2             6.195-13
 *N2             6.3518-1
 N2H2            6.536-14
 N2O             6.385-11
 N3              2.527-16
 N3H             8.988-16
 *O              3.3772-8
 *OH             1.6281-5
 *O2             1.2124-8

  * THERMODYNAMIC PROPERTIES FITTED TO 20000.K









         THERMODYNAMIC EQUILIBRIUM COMBUSTION PROPERTIES AT ASSIGNED

                                   PRESSURES

 CASE =                

             REACTANT                       MOLES         ENERGY      TEMP
                                                         KJ/KG-MOL      K
 FUEL        C6H6                         1.0000000     83032.119    300.000
 OXIDANT     O2                           7.5000000        54.358    300.000
 OXIDANT     N2                          28.2143000        53.881    300.000

 O/F=    6.94261  %FUEL= 12.590326  R,EQ.RATIO= 1.900000  PHI,EQ.RATIO= 1.900000

 THERMODYNAMIC PROPERTIES

 P, BAR            1.0000
 T, K             1836.15
 RHO, KG/CU M    1.7038-1
 H, KJ/KG          135.47
 U, KJ/KG         -451.45
 G, KJ/KG        -17991.3
 S, KJ/(KG)(K)     9.8721

 M, (1/n)          26.012
 (dLV/dLP)t      -1.00004
 (dLV/dLT)p        1.0011
 Cp, KJ/(KG)(K)    1.4501
 GAMMAs            1.2835
 SON VEL,M/SEC      867.9

 MOLE FRACTIONS

 *CH             1.694-16
 CH2             3.072-14
 CH3             1.338-11
 CH2OH           4.427-14
 CH3O            3.461-15
 CH4             3.854-10
 CH3OH           1.297-13
 *CN             4.263-12
 *CO             2.1886-1
 *CO2            3.2699-2
 COOH            1.5633-9
 C2H2,acetylene  1.461-13
 CH2CO,ketene    6.414-13
 CH3CN           2.293-16
 C2H4            2.142-16
 OCCN            1.426-15
 C2N2            1.662-15
 C2O             4.397-15
 C3O2            7.381-16
 *H              1.3570-4
 HCN             1.6300-7
 HCO             1.5682-8
 HCCO            2.593-15
 HNC             5.8853-9
 HNCO            2.7818-8
 HNO             3.742-11
 HNO2            7.339-14
 HO2             9.335-13
 *H2             7.8974-2
 HCHO,formaldehy 7.2637-9
 HCOOH           4.2713-9
 H2O             4.6733-2
 H2O2            2.149-12
 *N              5.420-11
 NCO             1.886-11
 *NH             1.712-10
 NH2             2.7065-9
 NH3             4.7816-7
 NH2OH           3.070-14
 *NO             4.0275-7
 NO2             9.142-14
 *N2             6.2259-1
 N2H2            4.659-14
 N2O             2.053-11
 N3H             4.778-16
 *O              7.5339-9
 *OH             6.5737-6
 *O2             1.9616-9

  * THERMODYNAMIC PROPERTIES FITTED TO 20000.K









         THERMODYNAMIC EQUILIBRIUM COMBUSTION PROPERTIES AT ASSIGNED

                                   PRESSURES

 CASE =                

             REACTANT                       MOLES         ENERGY      TEMP
                                                         KJ/KG-MOL      K
 FUEL        C6H6                         1.0000000     83032.119    300.000
 OXIDANT     O2                           7.5000000        54.358    300.000
 OXIDANT     N2                          28.2143000        53.881    300.000

 O/F=    6.59548  %FUEL= 13.165732  R,EQ.RATIO= 2.000000  PHI,EQ.RATIO= 2.000000

 THERMODYNAMIC PROPERTIES

 P, BAR            1.0000
 T, K             1770.47
 RHO, KG/CU M    1.7441-1
 H, KJ/KG          141.58
 U, KJ/KG         -431.77
 G, KJ/KG        -17394.8
 S, KJ/(KG)(K)     9.9049

 M, (1/n)          25.675
 (dLV/dLP)t      -1.00002
 (dLV/dLT)p        1.0007
 Cp, KJ/(KG)(K)    1.4473
 GAMMAs            1.2887
 SON VEL,M/SEC      859.6

 MOLE FRACTIONS

 CH2             2.915-14
 CH3             2.491-11
 CH2OH           4.750-14
 CH3O            3.374-15
 CH4             1.3278-9
 CH3OH           2.369-13
 *CN             3.053-12
 *CO             2.3316-1
 *CO2            2.6491-2
 COOH            8.839-10
 C2H2,acetylene  4.244-13
 CH2CO,ketene    1.421-12
 CH3CN           1.064-15
 C2H4            1.133-15
 OCCN            1.417-15
 C2N2            3.281-15
 C2O             3.628-15
 C3O2            1.234-15
 *H              8.4249-5
 HCN             2.6289-7
 HCO             1.2451-8
 HCCO            3.057-15
 HNC             8.1564-9
 HNCO            3.1979-8
 HNO             1.206-11
 HNO2            1.403-14
 HO2             1.469-13
 *H2             9.1361-2
 HCHO,formaldehy 9.0293-9
 HCOOH           3.8421-9
 H2O             3.8419-2
 H2O2            5.227-13
 *N              1.674-11
 NCO             1.084-11
 *NH             7.657-11
 NH2             1.9831-9
 NH3             6.7498-7
 NH2OH           1.656-14
 *NO             1.2330-7
 NO2             1.239-14
 *N2             6.1048-1
 N2H2            3.168-14
 N2O             6.283-12
 N3H             2.426-16
 *O              1.5660-9
 *OH             2.5061-6
 *O2             2.925-10

  * THERMODYNAMIC PROPERTIES FITTED TO 20000.K



