
 *******************************************************************************

         NASA-GLENN CHEMICAL EQUILIBRIUM PROGRAM CEA2, MAY 21, 2004
                   BY  BONNIE MCBRIDE AND SANFORD GORDON
      REFS: NASA RP-1311, PART I, 1994 AND NASA RP-1311, PART II, 1996

 *******************************************************************************



 problem    phi,eq.ratio=0.5,0.6,0.7,0.8,0.9,1,1.1,1.2,1.3,1.4,1.5,1.6,1.7,1.8,1.
 9,2,
       hp   p,bar=1,  t,k=3800
 react
   fuel=CH3OH moles=1  t,k=300
   oxid=O2 moles=1.5  t,k=300
 output  short   trace=1e-16
 end




         THERMODYNAMIC EQUILIBRIUM COMBUSTION PROPERTIES AT ASSIGNED

                                   PRESSURES

 CASE =                

             REACTANT                       MOLES         ENERGY      TEMP
                                                         KJ/KG-MOL      K
 FUEL        CH3OH                        1.0000000   -200858.418    300.000
 OXIDANT     O2                           1.5000000        54.358    300.000

 O/F=    2.99597  %FUEL= 25.025223  R,EQ.RATIO= 0.571429  PHI,EQ.RATIO= 0.500000

 THERMODYNAMIC PROPERTIES

 P, BAR            1.0000
 T, K             2776.01
 RHO, KG/CU M    1.1525-1
 H, KJ/KG        -1567.46
 U, KJ/KG        -2435.13
 G, KJ/KG        -32478.6
 S, KJ/(KG)(K)    11.1351

 M, (1/n)          26.601
 (dLV/dLP)t      -1.02748
 (dLV/dLT)p        1.6369
 Cp, KJ/(KG)(K)    6.4724
 GAMMAs            1.1135
 SON VEL,M/SEC      982.9

 MOLE FRACTIONS

 *C              9.768-14
 *CH             7.420-15
 CH2             4.940-15
 CH3             3.688-15
 CH2OH           3.917-15
 CH3O            7.931-16
 CH4             3.395-16
 *CO             4.1033-2
 *CO2            1.6673-1
 COOH            1.6735-7
 C2O             1.461-15
 *H              8.5525-3
 HCO             3.4322-8
 HO2             7.1366-5
 *H2             1.2910-2
 HCHO,formaldehy 2.165-10
 HCOOH           5.5372-9
 H2O             3.6230-1
 H2O2            2.4446-6
 *O              2.7428-2
 *OH             7.1988-2
 *O2             3.0899-1
 O3              1.3478-7

  * THERMODYNAMIC PROPERTIES FITTED TO 20000.K









         THERMODYNAMIC EQUILIBRIUM COMBUSTION PROPERTIES AT ASSIGNED

                                   PRESSURES

 CASE =                

             REACTANT                       MOLES         ENERGY      TEMP
                                                         KJ/KG-MOL      K
 FUEL        CH3OH                        1.0000000   -200858.418    300.000
 OXIDANT     O2                           1.5000000        54.358    300.000

 O/F=    2.49664  %FUEL= 28.598881  R,EQ.RATIO= 0.666667  PHI,EQ.RATIO= 0.600000

 THERMODYNAMIC PROPERTIES

 P, BAR            1.0000
 T, K             2835.61
 RHO, KG/CU M    1.0865-1
 H, KJ/KG        -1791.54
 U, KJ/KG        -2711.96
 G, KJ/KG        -34579.2
 S, KJ/(KG)(K)    11.5628

 M, (1/n)          25.615
 (dLV/dLP)t      -1.03581
 (dLV/dLT)p        1.8070
 Cp, KJ/(KG)(K)    7.8557
 GAMMAs            1.1100
 SON VEL,M/SEC     1010.8

 MOLE FRACTIONS

 *C              3.537-13
 *CH             2.987-14
 CH2             2.038-14
 CH3             1.514-14
 CH2OH           1.210-14
 CH3O            2.558-15
 CH4             1.432-15
 CH3OH           2.404-16
 *CO             6.0610-2
 *CO2            1.6802-1
 COOH            2.4678-7
 C2O             5.914-15
 *H              1.3111-2
 HCO             7.2465-8
 HCCO            1.175-16
 HO2             6.8598-5
 *H2             1.9982-2
 HCHO,formaldehy 4.959-10
 HCOOH           8.8203-9
 H2O             3.9025-1
 H2O2            2.5532-6
 *O              3.0326-2
 *OH             8.0858-2
 *O2             2.3677-1
 O3              1.0499-7

  * THERMODYNAMIC PROPERTIES FITTED TO 20000.K









         THERMODYNAMIC EQUILIBRIUM COMBUSTION PROPERTIES AT ASSIGNED

                                   PRESSURES

 CASE =                

             REACTANT                       MOLES         ENERGY      TEMP
                                                         KJ/KG-MOL      K
 FUEL        CH3OH                        1.0000000   -200858.418    300.000
 OXIDANT     O2                           1.5000000        54.358    300.000

 O/F=    2.13998  %FUEL= 31.847363  R,EQ.RATIO= 0.756757  PHI,EQ.RATIO= 0.700000

 THERMODYNAMIC PROPERTIES

 P, BAR            1.0000
 T, K             2874.22
 RHO, KG/CU M    1.0357-1
 H, KJ/KG        -1995.23
 U, KJ/KG        -2960.81
 G, KJ/KG        -36318.1
 S, KJ/(KG)(K)    11.9416

 M, (1/n)          24.750
 (dLV/dLP)t      -1.04255
 (dLV/dLT)p        1.9408
 Cp, KJ/(KG)(K)    9.0246
 GAMMAs            1.1082
 SON VEL,M/SEC     1034.4

 MOLE FRACTIONS

 *C              8.654-13
 *CH             8.059-14
 CH2             5.760-14
 CH3             4.404-14
 CH2OH           2.791-14
 CH3O            6.063-15
 CH4             4.373-15
 CH3OH           5.913-16
 *CO             8.0170-2
 *CO2            1.6582-1
 COOH            3.1895-7
 CH2CO,ketene    2.341-16
 C2O             1.608-14
 *H              1.7679-2
 HCO             1.2370-7
 HCCO            3.533-16
 HO2             6.2027-5
 *H2             2.7970-2
 HCHO,formaldehy 9.192-10
 HCOOH           1.2348-8
 H2O             4.1263-1
 H2O2            2.5097-6
 *O              3.0605-2
 *OH             8.5041-2
 *O2             1.8002-1
 O3              7.6495-8

  * THERMODYNAMIC PROPERTIES FITTED TO 20000.K









         THERMODYNAMIC EQUILIBRIUM COMBUSTION PROPERTIES AT ASSIGNED

                                   PRESSURES

 CASE =                

             REACTANT                       MOLES         ENERGY      TEMP
                                                         KJ/KG-MOL      K
 FUEL        CH3OH                        1.0000000   -200858.418    300.000
 OXIDANT     O2                           1.5000000        54.358    300.000

 O/F=    1.87248  %FUEL= 34.813120  R,EQ.RATIO= 0.842105  PHI,EQ.RATIO= 0.800000

 THERMODYNAMIC PROPERTIES

 P, BAR            1.0000
 T, K             2898.81
 RHO, KG/CU M    9.9521-2
 H, KJ/KG        -2181.20
 U, KJ/KG        -3186.01
 G, KJ/KG        -37777.6
 S, KJ/(KG)(K)    12.2797

 M, (1/n)          23.987
 (dLV/dLP)t      -1.04755
 (dLV/dLT)p        2.0378
 Cp, KJ/(KG)(K)    9.9624
 GAMMAs            1.1073
 SON VEL,M/SEC     1054.8

 MOLE FRACTIONS

 *C              1.664-12
 *CH             1.702-13
 CH2             1.293-13
 CH3             1.040-13
 CH2OH           5.387-14
 CH3O            1.190-14
 CH4             1.100-14
 CH3OH           1.227-15
 *CO             9.9198-2
 *CO2            1.6142-1
 COOH            3.7948-7
 CH2CO,ketene    5.821-16
 C2O             3.431-14
 *H              2.2005-2
 HCO             1.8539-7
 HCCO            8.298-16
 HO2             5.3651-5
 *H2             3.6820-2
 HCHO,formaldehy 1.4984-9
 HCOOH           1.5955-8
 H2O             4.3057-1
 H2O2            2.3626-6
 *O              2.9060-2
 *OH             8.5601-2
 *O2             1.3527-1
 O3              5.2861-8

  * THERMODYNAMIC PROPERTIES FITTED TO 20000.K









         THERMODYNAMIC EQUILIBRIUM COMBUSTION PROPERTIES AT ASSIGNED

                                   PRESSURES

 CASE =                

             REACTANT                       MOLES         ENERGY      TEMP
                                                         KJ/KG-MOL      K
 FUEL        CH3OH                        1.0000000   -200858.418    300.000
 OXIDANT     O2                           1.5000000        54.358    300.000

 O/F=    1.66443  %FUEL= 37.531523  R,EQ.RATIO= 0.923077  PHI,EQ.RATIO= 0.900000

 THERMODYNAMIC PROPERTIES

 P, BAR            1.0000
 T, K             2912.97
 RHO, KG/CU M    9.6239-2
 H, KJ/KG        -2351.65
 U, KJ/KG        -3390.73
 G, KJ/KG        -39005.5
 S, KJ/(KG)(K)    12.5830

 M, (1/n)          23.309
 (dLV/dLP)t      -1.05069
 (dLV/dLT)p        2.0970
 Cp, KJ/(KG)(K)   10.6443
 GAMMAs            1.1070
 SON VEL,M/SEC     1072.5

 MOLE FRACTIONS

 *C              2.714-12
 *CH             3.045-13
 CH2             2.493-13
 CH3             2.146-13
 CH2OH           9.238-14
 CH3O            2.061-14
 CH4             2.447-14
 CH3OH           2.281-15
 *CO             1.1748-1
 *CO2            1.5554-1
 COOH            4.2621-7
 CH2CO,ketene    1.247-15
 C2O             6.234-14
 *H              2.5916-2
 HCO             2.5459-7
 HCCO            1.655-15
 HO2             4.4672-5
 *H2             4.6554-2
 HCHO,formaldehy 2.2447-9
 HCOOH           1.9532-8
 H2O             4.4485-1
 H2O2            2.1467-6
 *O              2.6310-2
 *OH             8.3316-2
 *O2             9.9982-2
 O3              3.4742-8

  * THERMODYNAMIC PROPERTIES FITTED TO 20000.K









         THERMODYNAMIC EQUILIBRIUM COMBUSTION PROPERTIES AT ASSIGNED

                                   PRESSURES

 CASE =                

             REACTANT                       MOLES         ENERGY      TEMP
                                                         KJ/KG-MOL      K
 FUEL        CH3OH                        1.0000000   -200858.418    300.000
 OXIDANT     O2                           1.5000000        54.358    300.000

 O/F=    1.49798  %FUEL= 40.032279  R,EQ.RATIO= 1.000000  PHI,EQ.RATIO= 1.000000

 THERMODYNAMIC PROPERTIES

 P, BAR            1.0000
 T, K             2918.55
 RHO, KG/CU M    9.3549-2
 H, KJ/KG        -2508.45
 U, KJ/KG        -3577.41
 G, KJ/KG        -40030.5
 S, KJ/(KG)(K)    12.8564

 M, (1/n)          22.701
 (dLV/dLP)t      -1.05180
 (dLV/dLT)p        2.1156
 Cp, KJ/(KG)(K)   11.0334
 GAMMAs            1.1071
 SON VEL,M/SEC     1087.9

 MOLE FRACTIONS

 *C              3.918-12
 *CH             4.827-13
 CH2             4.309-13
 CH3             4.034-13
 CH2OH           1.458-13
 CH3O            3.265-14
 CH4             5.019-14
 CH3OH           3.934-15
 *CO             1.3495-1
 *CO2            1.4867-1
 COOH            4.5816-7
 CH2CO,ketene    2.416-15
 C2O             1.009-13
 *H              2.9264-2
 HCO             3.2823-7
 HCCO            2.944-15
 HO2             3.5839-5
 *H2             5.7247-2
 HCHO,formaldehy 3.1713-9
 HCOOH           2.3000-8
 H2O             4.5596-1
 H2O2            1.8875-6
 *O              2.2828-2
 *OH             7.8766-2
 *O2             7.2280-2
 O3              2.1640-8

  * THERMODYNAMIC PROPERTIES FITTED TO 20000.K









         THERMODYNAMIC EQUILIBRIUM COMBUSTION PROPERTIES AT ASSIGNED

                                   PRESSURES

 CASE =                

             REACTANT                       MOLES         ENERGY      TEMP
                                                         KJ/KG-MOL      K
 FUEL        CH3OH                        1.0000000   -200858.418    300.000
 OXIDANT     O2                           1.5000000        54.358    300.000

 O/F=    1.36180  %FUEL= 42.340519  R,EQ.RATIO= 1.073171  PHI,EQ.RATIO= 1.100000

 THERMODYNAMIC PROPERTIES

 P, BAR            1.0000
 T, K             2916.43
 RHO, KG/CU M    9.1346-2
 H, KJ/KG        -2653.19
 U, KJ/KG        -3747.93
 G, KJ/KG        -40869.1
 S, KJ/(KG)(K)    13.1036

 M, (1/n)          22.150
 (dLV/dLP)t      -1.05073
 (dLV/dLT)p        2.0907
 Cp, KJ/(KG)(K)   11.0860
 GAMMAs            1.1077
 SON VEL,M/SEC     1101.2

 MOLE FRACTIONS

 *C              5.122-12
 *CH             6.954-13
 CH2             6.861-13
 CH3             7.105-13
 CH2OH           2.162-13
 CH3O            4.835-14
 CH4             9.766-14
 CH3OH           6.442-15
 *CO             1.5159-1
 *CO2            1.4110-1
 COOH            4.7493-7
 C2H2,acetylene  1.765-16
 CH2CO,ketene    4.363-15
 C2O             1.495-13
 *H              3.1914-2
 HCO             4.0302-7
 HCCO            4.807-15
 HO2             2.7628-5
 *H2             6.9025-2
 HCHO,formaldehy 4.2951-9
 HCOOH           2.6301-8
 H2O             4.6419-1
 H2O2            1.6049-6
 *O              1.8984-2
 *OH             7.2405-2
 *O2             5.0759-2
 O3              1.2671-8

  * THERMODYNAMIC PROPERTIES FITTED TO 20000.K









         THERMODYNAMIC EQUILIBRIUM COMBUSTION PROPERTIES AT ASSIGNED

                                   PRESSURES

 CASE =                

             REACTANT                       MOLES         ENERGY      TEMP
                                                         KJ/KG-MOL      K
 FUEL        CH3OH                        1.0000000   -200858.418    300.000
 OXIDANT     O2                           1.5000000        54.358    300.000

 O/F=    1.24832  %FUEL= 44.477651  R,EQ.RATIO= 1.142857  PHI,EQ.RATIO= 1.200000

 THERMODYNAMIC PROPERTIES

 P, BAR            1.0000
 T, K             2906.82
 RHO, KG/CU M    8.9561-2
 H, KJ/KG        -2787.19
 U, KJ/KG        -3903.76
 G, KJ/KG        -41528.7
 S, KJ/(KG)(K)    13.3278

 M, (1/n)          21.646
 (dLV/dLP)t      -1.04742
 (dLV/dLT)p        2.0206
 Cp, KJ/(KG)(K)   10.7666
 GAMMAs            1.1089
 SON VEL,M/SEC     1112.7

 MOLE FRACTIONS

 *C              6.134-12
 *CH             9.234-13
 CH2             1.023-12
 CH3             1.194-12
 CH2OH           3.056-13
 CH3O            6.790-14
 CH4             1.841-13
 CH3OH           1.018-14
 *CO             1.6742-1
 *CO2            1.3304-1
 COOH            4.7650-7
 C2H2,acetylene  3.548-16
 CH2CO,ketene    7.494-15
 C2O             2.062-13
 *H              3.3722-2
 HCO             4.7529-7
 HCCO            7.344-15
 HO2             2.0352-5
 *H2             8.2048-2
 HCHO,formaldehy 5.6369-9
 HCOOH           2.9383-8
 H2O             4.6970-1
 H2O2            1.3153-6
 *O              1.5077-2
 *OH             6.4630-2
 *O2             3.4338-2
 O3              6.8912-9

  * THERMODYNAMIC PROPERTIES FITTED TO 20000.K









         THERMODYNAMIC EQUILIBRIUM COMBUSTION PROPERTIES AT ASSIGNED

                                   PRESSURES

 CASE =                

             REACTANT                       MOLES         ENERGY      TEMP
                                                         KJ/KG-MOL      K
 FUEL        CH3OH                        1.0000000   -200858.418    300.000
 OXIDANT     O2                           1.5000000        54.358    300.000

 O/F=    1.15230  %FUEL= 46.462021  R,EQ.RATIO= 1.209302  PHI,EQ.RATIO= 1.300000

 THERMODYNAMIC PROPERTIES

 P, BAR            1.0000
 T, K             2889.42
 RHO, KG/CU M    8.8155-2
 H, KJ/KG        -2911.62
 U, KJ/KG        -4045.98
 G, KJ/KG        -42009.4
 S, KJ/(KG)(K)    13.5313

 M, (1/n)          21.179
 (dLV/dLP)t      -1.04205
 (dLV/dLT)p        1.9085
 Cp, KJ/(KG)(K)   10.0752
 GAMMAs            1.1110
 SON VEL,M/SEC     1122.6

 MOLE FRACTIONS

 *C              6.753-12
 *CH             1.137-12
 CH2             1.440-12
 CH3             1.937-12
 CH2OH           4.153-13
 CH3O            9.117-14
 CH4             3.413-13
 CH3OH           1.570-14
 *CO             1.8244-1
 *CO2            1.2465-1
 COOH            4.6317-7
 C2H2,acetylene  6.830-16
 CH2CO,ketene    1.243-14
 O(CH)2O         1.236-16
 C2O             2.669-13
 *H              3.4540-2
 HCO             5.4074-7
 HCCO            1.062-14
 HO2             1.4209-5
 *H2             9.6504-2
 HCHO,formaldehy 7.2206-9
 HCOOH           3.2192-8
 H2O             4.7250-1
 H2O2            1.0335-6
 *O              1.1361-2
 *OH             5.5830-2
 *O2             2.2156-2
 O3              3.4261-9

  * THERMODYNAMIC PROPERTIES FITTED TO 20000.K









         THERMODYNAMIC EQUILIBRIUM COMBUSTION PROPERTIES AT ASSIGNED

                                   PRESSURES

 CASE =                

             REACTANT                       MOLES         ENERGY      TEMP
                                                         KJ/KG-MOL      K
 FUEL        CH3OH                        1.0000000   -200858.418    300.000
 OXIDANT     O2                           1.5000000        54.358    300.000

 O/F=    1.06999  %FUEL= 48.309442  R,EQ.RATIO= 1.272727  PHI,EQ.RATIO= 1.400000

 THERMODYNAMIC PROPERTIES

 P, BAR            1.0000
 T, K             2863.64
 RHO, KG/CU M    8.7110-2
 H, KJ/KG        -3027.46
 U, KJ/KG        -4175.43
 G, KJ/KG        -42306.1
 S, KJ/(KG)(K)    13.7163

 M, (1/n)          20.741
 (dLV/dLP)t      -1.03521
 (dLV/dLT)p        1.7657
 Cp, KJ/(KG)(K)    9.0769
 GAMMAs            1.1142
 SON VEL,M/SEC     1130.9

 MOLE FRACTIONS

 *C              6.812-12
 *CH             1.297-12
 CH2             1.922-12
 CH3             3.062-12
 CH2OH           5.449-13
 CH3O            1.175-13
 CH4             6.299-13
 CH3OH           2.382-14
 *CO             1.9661-1
 *CO2            1.1610-1
 COOH            4.3580-7
 C2H2,acetylene  1.275-15
 CH2CO,ketene    2.011-14
 O(CH)2O         1.653-16
 C2O             3.253-13
 C3O2            1.077-16
 *H              3.4229-2
 HCO             5.9438-7
 HCCO            1.461-14
 HO2             9.3065-6
 *H2             1.1257-1
 HCHO,formaldehy 9.0689-9
 HCOOH           3.4667-8
 H2O             4.7251-1
 H2O2            7.7295-7
 *O              8.0501-3
 *OH             4.6445-2
 *O2             1.3483-2
 O3              1.5282-9

  * THERMODYNAMIC PROPERTIES FITTED TO 20000.K









         THERMODYNAMIC EQUILIBRIUM COMBUSTION PROPERTIES AT ASSIGNED

                                   PRESSURES

 CASE =                

             REACTANT                       MOLES         ENERGY      TEMP
                                                         KJ/KG-MOL      K
 FUEL        CH3OH                        1.0000000   -200858.418    300.000
 OXIDANT     O2                           1.5000000        54.358    300.000

 O/F=    0.99866  %FUEL= 50.033619  R,EQ.RATIO= 1.333333  PHI,EQ.RATIO= 1.500000

 THERMODYNAMIC PROPERTIES

 P, BAR            1.0000
 T, K             2828.74
 RHO, KG/CU M    8.6423-2
 H, KJ/KG        -3135.57
 U, KJ/KG        -4292.68
 G, KJ/KG        -42411.0
 S, KJ/(KG)(K)    13.8844

 M, (1/n)          20.326
 (dLV/dLP)t      -1.02783
 (dLV/dLT)p        1.6105
 Cp, KJ/(KG)(K)    7.9087
 GAMMAs            1.1190
 SON VEL,M/SEC     1137.9

 MOLE FRACTIONS

 *C              6.248-12
 *CH             1.365-12
 CH2             2.431-12
 CH3             4.729-12
 CH2OH           6.912-13
 CH3O            1.454-13
 CH4             1.167-12
 CH3OH           3.575-14
 *CO             2.0983-1
 *CO2            1.0756-1
 COOH            3.9612-7
 C2H2,acetylene  2.322-15
 CH2CO,ketene    3.193-14
 O(CH)2O         2.140-16
 C2O             3.732-13
 C3O2            1.505-16
 *H              3.2702-2
 HCO             6.3072-7
 HCCO            1.916-14
 HO2             5.6565-6
 *H2             1.3033-1
 HCHO,formaldehy 1.1195-8
 HCOOH           3.6740-8
 H2O             4.6961-1
 H2O2            5.4598-7
 *O              5.3096-3
 *OH             3.6994-2
 *O2             7.6520-3
 O3              5.997-10

  * THERMODYNAMIC PROPERTIES FITTED TO 20000.K









         THERMODYNAMIC EQUILIBRIUM COMBUSTION PROPERTIES AT ASSIGNED

                                   PRESSURES

 CASE =                

             REACTANT                       MOLES         ENERGY      TEMP
                                                         KJ/KG-MOL      K
 FUEL        CH3OH                        1.0000000   -200858.418    300.000
 OXIDANT     O2                           1.5000000        54.358    300.000

 O/F=    0.93624  %FUEL= 51.646487  R,EQ.RATIO= 1.391304  PHI,EQ.RATIO= 1.600000

 THERMODYNAMIC PROPERTIES

 P, BAR            1.0000
 T, K             2784.21
 RHO, KG/CU M    8.6094-2
 H, KJ/KG        -3236.70
 U, KJ/KG        -4398.23
 G, KJ/KG        -42318.9
 S, KJ/(KG)(K)    14.0371

 M, (1/n)          19.930
 (dLV/dLP)t      -1.02091
 (dLV/dLT)p        1.4635
 Cp, KJ/(KG)(K)    6.7407
 GAMMAs            1.1257
 SON VEL,M/SEC     1143.5

 MOLE FRACTIONS

 *C              5.160-12
 *CH             1.314-12
 CH2             2.899-12
 CH3             7.142-12
 CH2OH           8.465-13
 CH3O            1.724-13
 CH4             2.180-12
 CH3OH           5.314-14
 *CO             2.2197-1
 *CO2            9.9268-2
 COOH            3.4712-7
 C2H             1.031-16
 C2H2,acetylene  4.136-15
 CH2CO,ketene    4.987-14
 O(CH)2O         2.687-16
 C2O             4.015-13
 C3O2            2.038-16
 *H              2.9990-2
 HCO             6.4470-7
 HCCO            2.393-14
 HO2             3.1608-6
 *H2             1.4972-1
 HCHO,formaldehy 1.3588-8
 HCOOH           3.8346-8
 H2O             4.6373-1
 H2O2            3.6178-7
 *O              3.2301-3
 *OH             2.8063-2
 *O2             4.0139-3
 O3              2.038-10

  * THERMODYNAMIC PROPERTIES FITTED TO 20000.K









         THERMODYNAMIC EQUILIBRIUM COMBUSTION PROPERTIES AT ASSIGNED

                                   PRESSURES

 CASE =                

             REACTANT                       MOLES         ENERGY      TEMP
                                                         KJ/KG-MOL      K
 FUEL        CH3OH                        1.0000000   -200858.418    300.000
 OXIDANT     O2                           1.5000000        54.358    300.000

 O/F=    0.88117  %FUEL= 53.158487  R,EQ.RATIO= 1.446809  PHI,EQ.RATIO= 1.700000

 THERMODYNAMIC PROPERTIES

 P, BAR            1.0000
 T, K             2730.15
 RHO, KG/CU M    8.6122-2
 H, KJ/KG        -3331.51
 U, KJ/KG        -4492.65
 G, KJ/KG        -42032.6
 S, KJ/(KG)(K)    14.1755

 M, (1/n)          19.550
 (dLV/dLP)t      -1.01513
 (dLV/dLT)p        1.3393
 Cp, KJ/(KG)(K)    5.7098
 GAMMAs            1.1344
 SON VEL,M/SEC     1147.7

 MOLE FRACTIONS

 *C              3.802-12
 *CH             1.148-12
 CH2             3.243-12
 CH3             1.051-11
 CH2OH           9.980-13
 CH3O            1.953-13
 CH4             4.101-12
 CH3OH           7.821-14
 *CO             2.3286-1
 *CO2            9.1473-2
 COOH            2.9301-7
 C2H             1.257-16
 C2H2,acetylene  7.186-15
 CH2CO,ketene    7.658-14
 O(CH)2O         3.269-16
 C2O             4.034-13
 C3O2            2.676-16
 *H              2.6299-2
 HCO             6.3337-7
 HCCO            2.836-14
 HO2             1.6159-6
 *H2             1.7042-1
 HCHO,formaldehy 1.6204-8
 HCOOH           3.9441-8
 H2O             4.5499-1
 H2O2            2.2408-7
 *O              1.8025-3
 *OH             2.0208-2
 *O2             1.9382-3
 O3              5.948-11

  * THERMODYNAMIC PROPERTIES FITTED TO 20000.K









         THERMODYNAMIC EQUILIBRIUM COMBUSTION PROPERTIES AT ASSIGNED

                                   PRESSURES

 CASE =                

             REACTANT                       MOLES         ENERGY      TEMP
                                                         KJ/KG-MOL      K
 FUEL        CH3OH                        1.0000000   -200858.418    300.000
 OXIDANT     O2                           1.5000000        54.358    300.000

 O/F=    0.83221  %FUEL= 54.578794  R,EQ.RATIO= 1.500000  PHI,EQ.RATIO= 1.800000

 THERMODYNAMIC PROPERTIES

 P, BAR            1.0000
 T, K             2667.44
 RHO, KG/CU M    8.6497-2
 H, KJ/KG        -3420.57
 U, KJ/KG        -4576.68
 G, KJ/KG        -41566.9
 S, KJ/(KG)(K)    14.3007

 M, (1/n)          19.184
 (dLV/dLP)t      -1.01068
 (dLV/dLT)p        1.2427
 Cp, KJ/(KG)(K)    4.8783
 GAMMAs            1.1448
 SON VEL,M/SEC     1150.5

 MOLE FRACTIONS

 *C              2.490-12
 *CH             9.065-13
 CH2             3.388-12
 CH3             1.502-11
 CH2OH           1.130-12
 CH3O            2.108-13
 CH4             7.743-12
 CH3OH           1.137-13
 *CO             2.4236-1
 *CO2            8.4404-2
 COOH            2.3854-7
 C2H             1.408-16
 C2H2,acetylene  1.212-14
 CH2CO,ketene    1.153-13
 O(CH)2O         3.852-16
 C2O             3.777-13
 C3O2            3.402-16
 *H              2.2012-2
 HCO             5.9740-7
 HCCO            3.182-14
 HO2             7.5663-7
 *H2             1.9188-1
 HCHO,formaldehy 1.8964-8
 HCOOH           4.0026-8
 H2O             4.4374-1
 H2O2            1.2986-7
 *O              9.2240-4
 *OH             1.3813-2
 *O2             8.6319-4
 O3              1.496-11

  * THERMODYNAMIC PROPERTIES FITTED TO 20000.K









         THERMODYNAMIC EQUILIBRIUM COMBUSTION PROPERTIES AT ASSIGNED

                                   PRESSURES

 CASE =                

             REACTANT                       MOLES         ENERGY      TEMP
                                                         KJ/KG-MOL      K
 FUEL        CH3OH                        1.0000000   -200858.418    300.000
 OXIDANT     O2                           1.5000000        54.358    300.000

 O/F=    0.78841  %FUEL= 55.915504  R,EQ.RATIO= 1.551020  PHI,EQ.RATIO= 1.900000

 THERMODYNAMIC PROPERTIES

 P, BAR            1.0000
 T, K             2597.65
 RHO, KG/CU M    8.7194-2
 H, KJ/KG        -3504.38
 U, KJ/KG        -4651.25
 G, KJ/KG        -40946.3
 S, KJ/(KG)(K)    14.4138

 M, (1/n)          18.832
 (dLV/dLP)t      -1.00742
 (dLV/dLT)p        1.1711
 Cp, KJ/(KG)(K)    4.2422
 GAMMAs            1.1565
 SON VEL,M/SEC     1151.7

 MOLE FRACTIONS

 *C              1.450-12
 *CH             6.468-13
 CH2             3.299-12
 CH3             2.077-11
 CH2OH           1.228-12
 CH3O            2.167-13
 CH4             1.462-11
 CH3OH           1.629-13
 *CO             2.5043-1
 *CO2            7.8206-2
 COOH            1.8784-7
 C2H             1.445-16
 C2H2,acetylene  1.979-14
 CH2CO,ketene    1.701-13
 O(CH)2O         4.400-16
 C2O             3.297-13
 C3O2            4.194-16
 *H              1.7594-2
 HCO             5.4139-7
 HCCO            3.377-14
 HO2             3.2639-7
 *H2             2.1343-1
 HCHO,formaldehy 2.1773-8
 HCOOH           4.0153-8
 H2O             4.3056-1
 H2O2            7.0740-8
 *O              4.3477-4
 *OH             8.9869-3
 *O2             3.5683-4
 O3              3.277-12

  * THERMODYNAMIC PROPERTIES FITTED TO 20000.K









         THERMODYNAMIC EQUILIBRIUM COMBUSTION PROPERTIES AT ASSIGNED

                                   PRESSURES

 CASE =                

             REACTANT                       MOLES         ENERGY      TEMP
                                                         KJ/KG-MOL      K
 FUEL        CH3OH                        1.0000000   -200858.418    300.000
 OXIDANT     O2                           1.5000000        54.358    300.000

 O/F=    0.74899  %FUEL= 57.175787  R,EQ.RATIO= 1.600000  PHI,EQ.RATIO= 2.000000

 THERMODYNAMIC PROPERTIES

 P, BAR            1.0000
 T, K             2522.62
 RHO, KG/CU M    8.8185-2
 H, KJ/KG        -3583.41
 U, KJ/KG        -4717.38
 G, KJ/KG        -40200.9
 S, KJ/(KG)(K)    14.5157

 M, (1/n)          18.496
 (dLV/dLP)t      -1.00508
 (dLV/dLT)p        1.1192
 Cp, KJ/(KG)(K)    3.7677
 GAMMAs            1.1687
 SON VEL,M/SEC     1151.2

 MOLE FRACTIONS

 *C              7.553-13
 *CH             4.189-13
 CH2             3.001-12
 CH3             2.777-11
 CH2OH           1.283-12
 CH3O            2.127-13
 CH4             2.751-11
 CH3OH           2.300-13
 *CO             2.5713-1
 *CO2            7.2922-2
 COOH            1.4364-7
 C2H             1.362-16
 C2H2,acetylene  3.120-14
 CH2CO,ketene    2.455-13
 O(CH)2O         4.882-16
 C2O             2.694-13
 C3O2            5.020-16
 *H              1.3459-2
 HCO             4.7252-7
 HCCO            3.400-14
 HO2             1.3074-7
 *H2             2.3448-1
 HCHO,formaldehy 2.4545-8
 HCOOH           3.9911-8
 H2O             4.1610-1
 H2O2            3.6449-8
 *O              1.8999-4
 *OH             5.5878-3
 *O2             1.3800-4
 O3              6.343-13

  * THERMODYNAMIC PROPERTIES FITTED TO 20000.K



