
 *******************************************************************************

         NASA-GLENN CHEMICAL EQUILIBRIUM PROGRAM CEA2, MAY 21, 2004
                   BY  BONNIE MCBRIDE AND SANFORD GORDON
      REFS: NASA RP-1311, PART I, 1994 AND NASA RP-1311, PART II, 1996

 *******************************************************************************



 problem    phi,eq.ratio=2.1,2.2,2.3,2.4,2.5,2.6,2.7,2.8,2.9,3,3.1,3.2,3.3,3.4,3.
 5,3.6,
       hp   p,bar=1,  t,k=3800
 react
   fuel=CH3OH moles=1 t,k=300
   oxid=O2 moles=1.5 t,k=300
 output
      trace=1e-16 siunits short
 end




         THERMODYNAMIC EQUILIBRIUM COMBUSTION PROPERTIES AT ASSIGNED

                                   PRESSURES

 CASE =                

             REACTANT                       MOLES         ENERGY      TEMP
                                                         KJ/KG-MOL      K
 FUEL        CH3OH                        1.0000000   -200858.418    300.000
 OXIDANT     O2                           1.5000000        54.358    300.000

 O/F=    0.71333  %FUEL= 58.366015  R,EQ.RATIO= 1.647059  PHI,EQ.RATIO= 2.100000

 THERMODYNAMIC PROPERTIES

 P, BAR            1.0000
 T, K             2444.18
 RHO, KG/CU M    8.9440-2
 H, KJ/KG        -3658.04
 U, KJ/KG        -4776.11
 G, KJ/KG        -39360.6
 S, KJ/(KG)(K)    14.6072

 M, (1/n)          18.176
 (dLV/dLP)t      -1.00343
 (dLV/dLT)p        1.0820
 Cp, KJ/(KG)(K)    3.4174
 GAMMAs            1.1811
 SON VEL,M/SEC     1149.1

 MOLE FRACTIONS

 *C              3.548-13
 *CH             2.478-13
 CH2             2.561-12
 CH3             3.597-11
 CH2OH           1.293-12
 CH3O            2.001-13
 CH4             5.162-11
 CH3OH           3.207-13
 *CO             2.6257-1
 *CO2            6.8512-2
 COOH            1.0707-7
 C2H             1.187-16
 C2H2,acetylene  4.760-14
 CH2CO,ketene    3.474-13
 O(CH)2O         5.280-16
 C2O             2.071-13
 C3O2            5.854-16
 *H              9.8872-3
 HCO             3.9847-7
 HCCO            3.258-14
 HO2             4.9009-8
 *H2             2.5461-1
 HCHO,formaldehy 2.7215-8
 HCOOH           3.9400-8
 H2O             4.0096-1
 H2O2            1.7876-8
 *O              7.7515-5
 *OH             3.3351-3
 *O2             5.0294-5
 O3              1.099-13

  * THERMODYNAMIC PROPERTIES FITTED TO 20000.K









         THERMODYNAMIC EQUILIBRIUM COMBUSTION PROPERTIES AT ASSIGNED

                                   PRESSURES

 CASE =                

             REACTANT                       MOLES         ENERGY      TEMP
                                                         KJ/KG-MOL      K
 FUEL        CH3OH                        1.0000000   -200858.418    300.000
 OXIDANT     O2                           1.5000000        54.358    300.000

 O/F=    0.68090  %FUEL= 59.491871  R,EQ.RATIO= 1.692308  PHI,EQ.RATIO= 2.200000

 THERMODYNAMIC PROPERTIES

 P, BAR            1.0000
 T, K             2363.98
 RHO, KG/CU M    9.0928-2
 H, KJ/KG        -3728.63
 U, KJ/KG        -4828.41
 G, KJ/KG        -38453.6
 S, KJ/(KG)(K)    14.6892

 M, (1/n)          17.872
 (dLV/dLP)t      -1.00227
 (dLV/dLT)p        1.0557
 Cp, KJ/(KG)(K)    3.1608
 GAMMAs            1.1930
 SON VEL,M/SEC     1145.4

 MOLE FRACTIONS

 *C              1.517-13
 *CH             1.351-13
 CH2             2.062-12
 CH3             4.528-11
 CH2OH           1.261-12
 CH3O            1.813-13
 CH4             9.667-11
 CH3OH           4.422-13
 *CO             2.6694-1
 *CO2            6.4893-2
 COOH            7.8079-8
 C2H2,acetylene  7.051-14
 CH2CO,ketene    4.834-13
 O(CH)2O         5.587-16
 C2O             1.507-13
 C3O2            6.676-16
 *H              7.0018-3
 HCO             3.2587-7
 HCCO            2.988-14
 HO2             1.7318-8
 *H2             2.7358-1
 HCHO,formaldehy 2.9748-8
 HCOOH           3.8716-8
 H2O             3.8562-1
 H2O2            8.3933-9
 *O              2.9727-5
 *OH             1.9189-3
 *O2             1.7386-5
 O3              1.727-14

  * THERMODYNAMIC PROPERTIES FITTED TO 20000.K









         THERMODYNAMIC EQUILIBRIUM COMBUSTION PROPERTIES AT ASSIGNED

                                   PRESSURES

 CASE =                

             REACTANT                       MOLES         ENERGY      TEMP
                                                         KJ/KG-MOL      K
 FUEL        CH3OH                        1.0000000   -200858.418    300.000
 OXIDANT     O2                           1.5000000        54.358    300.000

 O/F=    0.65130  %FUEL= 60.558440  R,EQ.RATIO= 1.735849  PHI,EQ.RATIO= 2.300000

 THERMODYNAMIC PROPERTIES

 P, BAR            1.0000
 T, K             2283.46
 RHO, KG/CU M    9.2621-2
 H, KJ/KG        -3795.51
 U, KJ/KG        -4875.18
 G, KJ/KG        -37504.8
 S, KJ/(KG)(K)    14.7624

 M, (1/n)          17.585
 (dLV/dLP)t      -1.00148
 (dLV/dLT)p        1.0372
 Cp, KJ/(KG)(K)    2.9753
 GAMMAs            1.2041
 SON VEL,M/SEC     1140.2

 MOLE FRACTIONS

 *C              5.963-14
 *CH             6.846-14
 CH2             1.578-12
 CH3             5.560-11
 CH2OH           1.197-12
 CH3O            1.591-13
 CH4             1.809-10
 CH3OH           6.047-13
 *CO             2.7038-1
 *CO2            6.1966-2
 COOH            5.5888-8
 C2H2,acetylene  1.018-13
 CH2CO,ketene    6.631-13
 O(CH)2O         5.809-16
 C2O             1.045-13
 C3O2            7.475-16
 *H              4.7996-3
 HCO             2.5942-7
 HCCO            2.637-14
 HO2             5.8079-9
 *H2             2.9132-1
 HCHO,formaldehy 3.2134-8
 HCOOH           3.7942-8
 H2O             3.7044-1
 H2O2            3.7936-9
 *O              1.0789-5
 *OH             1.0689-3
 *O2             5.7353-6
 O3              2.487-15

  * THERMODYNAMIC PROPERTIES FITTED TO 20000.K









         THERMODYNAMIC EQUILIBRIUM COMBUSTION PROPERTIES AT ASSIGNED

                                   PRESSURES

 CASE =                

             REACTANT                       MOLES         ENERGY      TEMP
                                                         KJ/KG-MOL      K
 FUEL        CH3OH                        1.0000000   -200858.418    300.000
 OXIDANT     O2                           1.5000000        54.358    300.000

 O/F=    0.62416  %FUEL= 61.570285  R,EQ.RATIO= 1.777778  PHI,EQ.RATIO= 2.400000

 THERMODYNAMIC PROPERTIES

 P, BAR            1.0000
 T, K             2203.79
 RHO, KG/CU M    9.4492-2
 H, KJ/KG        -3858.96
 U, KJ/KG        -4917.25
 G, KJ/KG        -36535.6
 S, KJ/(KG)(K)    14.8275

 M, (1/n)          17.314
 (dLV/dLP)t      -1.00095
 (dLV/dLT)p        1.0245
 Cp, KJ/(KG)(K)    2.8434
 GAMMAs            1.2140
 SON VEL,M/SEC     1133.5

 MOLE FRACTIONS

 *C              2.177-14
 *CH             3.254-14
 CH2             1.154-12
 CH3             6.685-11
 CH2OH           1.109-12
 CH3O            1.359-13
 CH4             3.390-10
 CH3OH           8.220-13
 *CO             2.7307-1
 *CO2            5.9630-2
 COOH            3.9384-8
 C2H2,acetylene  1.439-13
 CH2CO,ketene    8.995-13
 O(CH)2O         5.953-16
 CH3CO,acetyl    1.153-16
 C2H4            1.081-16
 C2O             6.945-14
 C3O2            8.245-16
 *H              3.1979-3
 HCO             2.0178-7
 HCCO            2.252-14
 HO2             1.8612-9
 *H2             3.0785-1
 HCHO,formaldehy 3.4378-8
 HCOOH           3.7138-8
 H2O             3.5566-1
 H2O2            1.6592-9
 *O              3.7306-6
 *OH             5.7877-4
 *O2             1.8159-6
 O3              3.321-16

  * THERMODYNAMIC PROPERTIES FITTED TO 20000.K









         THERMODYNAMIC EQUILIBRIUM COMBUSTION PROPERTIES AT ASSIGNED

                                   PRESSURES

 CASE =                

             REACTANT                       MOLES         ENERGY      TEMP
                                                         KJ/KG-MOL      K
 FUEL        CH3OH                        1.0000000   -200858.418    300.000
 OXIDANT     O2                           1.5000000        54.358    300.000

 O/F=    0.59919  %FUEL= 62.531513  R,EQ.RATIO= 1.818182  PHI,EQ.RATIO= 2.500000

 THERMODYNAMIC PROPERTIES

 P, BAR            1.0000
 T, K             2125.89
 RHO, KG/CU M    9.6517-2
 H, KJ/KG        -3919.23
 U, KJ/KG        -4955.32
 G, KJ/KG        -35563.3
 S, KJ/(KG)(K)    14.8851

 M, (1/n)          17.060
 (dLV/dLP)t      -1.00060
 (dLV/dLT)p        1.0158
 Cp, KJ/(KG)(K)    2.7517
 GAMMAs            1.2228
 SON VEL,M/SEC     1125.6

 MOLE FRACTIONS

 *C              7.453-15
 *CH             1.464-14
 CH2             8.125-13
 CH3             7.896-11
 CH2OH           1.008-12
 CH3O            1.134-13
 CH4             6.365-10
 CH3OH           1.113-12
 *CO             2.7514-1
 *CO2            5.7798-2
 COOH            2.7396-8
 C2H2,acetylene  1.998-13
 CH2CO,ketene    1.209-12
 O(CH)2O         6.033-16
 CH3CO,acetyl    1.464-16
 C2H4            2.283-16
 C2O             4.454-14
 C3O2            8.985-16
 *H              2.0792-3
 HCO             1.5387-7
 HCCO            1.870-14
 HO2             5.735-10
 *H2             3.2326-1
 HCHO,formaldehy 3.6494-8
 HCOOH           3.6351-8
 H2O             3.4142-1
 H2O2            7.056-10
 *O              1.2370-6
 *OH             3.0583-4
 *O2             5.5495-7

  * THERMODYNAMIC PROPERTIES FITTED TO 20000.K









         THERMODYNAMIC EQUILIBRIUM COMBUSTION PROPERTIES AT ASSIGNED

                                   PRESSURES

 CASE =                

             REACTANT                       MOLES         ENERGY      TEMP
                                                         KJ/KG-MOL      K
 FUEL        CH3OH                        1.0000000   -200858.418    300.000
 OXIDANT     O2                           1.5000000        54.358    300.000

 O/F=    0.57615  %FUEL= 63.445828  R,EQ.RATIO= 1.857143  PHI,EQ.RATIO= 2.600000

 THERMODYNAMIC PROPERTIES

 P, BAR            1.0000
 T, K             2050.41
 RHO, KG/CU M    9.8672-2
 H, KJ/KG        -3976.56
 U, KJ/KG        -4990.02
 G, KJ/KG        -34601.2
 S, KJ/(KG)(K)    14.9359

 M, (1/n)          16.822
 (dLV/dLP)t      -1.00037
 (dLV/dLT)p        1.0101
 Cp, KJ/(KG)(K)    2.6894
 GAMMAs            1.2302
 SON VEL,M/SEC     1116.6

 MOLE FRACTIONS

 *C              2.415-15
 *CH             6.278-15
 CH2             5.535-13
 CH3             9.191-11
 CH2OH           9.004-13
 CH3O            9.294-14
 CH4             1.1980-9
 CH3OH           1.502-12
 *CO             2.7669-1
 *CO2            5.6393-2
 COOH            1.8854-8
 C2H2,acetylene  2.734-13
 CH2CO,ketene    1.615-12
 O(CH)2O         6.060-16
 CH3CO,acetyl    1.836-16
 C2H4            4.800-16
 C2O             2.771-14
 C3O2            9.699-16
 *H              1.3239-3
 HCO             1.1538-7
 HCCO            1.517-14
 HO2             1.709-10
 *H2             3.3765-1
 HCHO,formaldehy 3.8502-8
 HCOOH           3.5608-8
 H2O             3.2778-1
 H2O2            2.930-10
 *O              3.9562-7
 *OH             1.5825-4
 *O2             1.6450-7

  * THERMODYNAMIC PROPERTIES FITTED TO 20000.K









         THERMODYNAMIC EQUILIBRIUM COMBUSTION PROPERTIES AT ASSIGNED

                                   PRESSURES

 CASE =                

             REACTANT                       MOLES         ENERGY      TEMP
                                                         KJ/KG-MOL      K
 FUEL        CH3OH                        1.0000000   -200858.418    300.000
 OXIDANT     O2                           1.5000000        54.358    300.000

 O/F=    0.55481  %FUEL= 64.316583  R,EQ.RATIO= 1.894737  PHI,EQ.RATIO= 2.700000

 THERMODYNAMIC PROPERTIES

 P, BAR            1.0000
 T, K             1977.76
 RHO, KG/CU M    1.0094-1
 H, KJ/KG        -4031.16
 U, KJ/KG        -5021.84
 G, KJ/KG        -33658.7
 S, KJ/(KG)(K)    14.9803

 M, (1/n)          16.599
 (dLV/dLP)t      -1.00023
 (dLV/dLT)p        1.0064
 Cp, KJ/(KG)(K)    2.6483
 GAMMAs            1.2366
 SON VEL,M/SEC     1106.8

 MOLE FRACTIONS

 *C              7.458-16
 *CH             2.584-15
 CH2             3.666-13
 CH3             1.057-10
 CH2OH           7.936-13
 CH3O            7.497-14
 CH4             2.2621-9
 CH3OH           2.025-12
 *CO             2.7783-1
 *CO2            5.5354-2
 COOH            1.2860-8
 C2H2,acetylene  3.695-13
 CH2CO,ketene    2.145-12
 O(CH)2O         6.047-16
 CH3CO,acetyl    2.281-16
 C2H4            1.007-15
 CH3CHO,ethanal  1.149-16
 C2O             1.679-14
 C3O2            1.039-15
 *H              8.2797-4
 HCO             8.5280-8
 HCCO            1.206-14
 HO2             4.945-11
 *H2             3.5114-1
 HCHO,formaldehy 4.0420-8
 HCOOH           3.4929-8
 H2O             3.1477-1
 H2O2            1.192-10
 *O              1.2263-7
 *OH             8.0413-5
 *O2             4.7489-8

  * THERMODYNAMIC PROPERTIES FITTED TO 20000.K









         THERMODYNAMIC EQUILIBRIUM COMBUSTION PROPERTIES AT ASSIGNED

                                   PRESSURES

 CASE =                

             REACTANT                       MOLES         ENERGY      TEMP
                                                         KJ/KG-MOL      K
 FUEL        CH3OH                        1.0000000   -200858.418    300.000
 OXIDANT     O2                           1.5000000        54.358    300.000

 O/F=    0.53499  %FUEL= 65.146819  R,EQ.RATIO= 1.931034  PHI,EQ.RATIO= 2.800000

 THERMODYNAMIC PROPERTIES

 P, BAR            1.0000
 T, K             1908.17
 RHO, KG/CU M    1.0331-1
 H, KJ/KG        -4083.22
 U, KJ/KG        -5051.21
 G, KJ/KG        -32741.8
 S, KJ/(KG)(K)    15.0189

 M, (1/n)          16.390
 (dLV/dLP)t      -1.00014
 (dLV/dLT)p        1.0040
 Cp, KJ/(KG)(K)    2.6222
 GAMMAs            1.2420
 SON VEL,M/SEC     1096.5

 MOLE FRACTIONS

 *C              2.209-16
 *CH             1.026-15
 CH2             2.369-13
 CH3             1.202-10
 CH2OH           6.913-13
 CH3O            5.968-14
 CH4             4.2865-9
 CH3OH           2.726-12
 *CO             2.7861-1
 *CO2            5.4631-2
 COOH            8.7048-9
 C2H2,acetylene  4.945-13
 CH2CO,ketene    2.838-12
 O(CH)2O         6.001-16
 CH3CO,acetyl    2.813-16
 C2H4            2.109-15
 CH3CHO,ethanal  2.071-16
 C2O             9.945-15
 C3O2            1.107-15
 *H              5.0977-4
 HCO             6.2252-8
 HCCO            9.427-15
 HO2             1.395-11
 *H2             3.6384-1
 HCHO,formaldehy 4.2265-8
 HCOOH           3.4324-8
 H2O             3.0237-1
 H2O2            4.765-11
 *O              3.6978-8
 *OH             4.0215-5
 *O2             1.3392-8

  * THERMODYNAMIC PROPERTIES FITTED TO 20000.K









         THERMODYNAMIC EQUILIBRIUM COMBUSTION PROPERTIES AT ASSIGNED

                                   PRESSURES

 CASE =                

             REACTANT                       MOLES         ENERGY      TEMP
                                                         KJ/KG-MOL      K
 FUEL        CH3OH                        1.0000000   -200858.418    300.000
 OXIDANT     O2                           1.5000000        54.358    300.000

 O/F=    0.51655  %FUEL= 65.939300  R,EQ.RATIO= 1.966102  PHI,EQ.RATIO= 2.900000

 THERMODYNAMIC PROPERTIES

 P, BAR            1.0000
 T, K             1841.70
 RHO, KG/CU M    1.0576-1
 H, KJ/KG        -4132.91
 U, KJ/KG        -5078.44
 G, KJ/KG        -31854.2
 S, KJ/(KG)(K)    15.0521

 M, (1/n)          16.195
 (dLV/dLP)t      -1.00008
 (dLV/dLT)p        1.0025
 Cp, KJ/(KG)(K)    2.6066
 GAMMAs            1.2466
 SON VEL,M/SEC     1085.7

 MOLE FRACTIONS

 *CH             3.949-16
 CH2             1.498-13
 CH3             1.356-10
 CH2OH           5.962-13
 CH3O            4.698-14
 CH4             8.1544-9
 CH3OH           3.671-12
 *CO             2.7909-1
 *CO2            5.4185-2
 COOH            5.8528-9
 C2H2,acetylene  6.564-13
 CH2CO,ketene    3.744-12
 O(CH)2O         5.932-16
 CH3CO,acetyl    3.447-16
 C2H4            4.416-15
 CH3CHO,ethanal  3.737-16
 C2O             5.774-15
 C3O2            1.173-15
 *H              3.0953-4
 HCO             4.4945-8
 HCCO            7.258-15
 HO2             3.844-12
 *H2             3.7583-1
 HCHO,formaldehy 4.4052-8
 HCOOH           3.3796-8
 H2O             2.9057-1
 H2O2            1.874-11
 *O              1.0875-8
 *OH             1.9824-5
 *O2             3.6969-9

  * THERMODYNAMIC PROPERTIES FITTED TO 20000.K









         THERMODYNAMIC EQUILIBRIUM COMBUSTION PROPERTIES AT ASSIGNED

                                   PRESSURES

 CASE =                

             REACTANT                       MOLES         ENERGY      TEMP
                                                         KJ/KG-MOL      K
 FUEL        CH3OH                        1.0000000   -200858.418    300.000
 OXIDANT     O2                           1.5000000        54.358    300.000

 O/F=    0.49933  %FUEL= 66.696544  R,EQ.RATIO= 2.000000  PHI,EQ.RATIO= 3.000000

 THERMODYNAMIC PROPERTIES

 P, BAR            1.0000
 T, K             1778.31
 RHO, KG/CU M    1.0829-1
 H, KJ/KG        -4180.39
 U, KJ/KG        -5103.80
 G, KJ/KG        -30997.8
 S, KJ/(KG)(K)    15.0803

 M, (1/n)          16.012
 (dLV/dLP)t      -1.00005
 (dLV/dLT)p        1.0015
 Cp, KJ/(KG)(K)    2.5983
 GAMMAs            1.2506
 SON VEL,M/SEC     1074.6

 MOLE FRACTIONS

 *CH             1.475-16
 CH2             9.293-14
 CH3             1.518-10
 CH2OH           5.095-13
 CH3O            3.662-14
 CH4             1.5581-8
 CH3OH           4.945-12
 *CO             2.7932-1
 *CO2            5.3984-2
 COOH            3.9111-9
 C2H2,acetylene  8.652-13
 CH2CO,ketene    4.928-12
 O(CH)2O         5.843-16
 CH3CO,acetyl    4.204-16
 C2H4            9.254-15
 CH3CHO,ethanal  6.763-16
 C2O             3.292-15
 C3O2            1.239-15
 *H              1.8558-4
 HCO             3.2127-8
 HCCO            5.515-15
 HO2             1.037-12
 *H2             3.8720-1
 HCHO,formaldehy 4.5793-8
 HCOOH           3.3348-8
 H2O             2.7931-1
 H2O2            7.262-12
 *O              3.1253-9
 *OH             9.6420-6
 *O2             1.0002-9

  * THERMODYNAMIC PROPERTIES FITTED TO 20000.K









         THERMODYNAMIC EQUILIBRIUM COMBUSTION PROPERTIES AT ASSIGNED

                                   PRESSURES

 CASE =                

             REACTANT                       MOLES         ENERGY      TEMP
                                                         KJ/KG-MOL      K
 FUEL        CH3OH                        1.0000000   -200858.418    300.000
 OXIDANT     O2                           1.5000000        54.358    300.000

 O/F=    0.48322  %FUEL= 67.420849  R,EQ.RATIO= 2.032787  PHI,EQ.RATIO= 3.100000

 THERMODYNAMIC PROPERTIES

 P, BAR            1.0000
 T, K             1717.92
 RHO, KG/CU M    1.1090-1
 H, KJ/KG        -4225.81
 U, KJ/KG        -5127.51
 G, KJ/KG        -30173.0
 S, KJ/(KG)(K)    15.1039

 M, (1/n)          15.841
 (dLV/dLP)t      -1.00003
 (dLV/dLT)p        1.0009
 Cp, KJ/(KG)(K)    2.5949
 GAMMAs            1.2541
 SON VEL,M/SEC     1063.4

 MOLE FRACTIONS

 CH2             5.662-14
 CH3             1.688-10
 CH2OH           4.320-13
 CH3O            2.829-14
 CH4             2.9918-8
 CH3OH           6.667-12
 *CO             2.7931-1
 *CO2            5.4006-2
 COOH            2.5984-9
 C2H2,acetylene  1.134-12
 CH2CO,ketene    6.478-12
 O(CH)2O         5.741-16
 CH3CO,acetyl    5.109-16
 C2H4            1.943-14
 CH3CHO,ethanal  1.228-15
 CH3COOH         1.525-16
 C2O             1.846-15
 C3O2            1.304-15
 *H              1.0996-4
 HCO             2.2753-8
 HCCO            4.141-15
 HO2             2.738-13
 *H2             3.9802-1
 HCHO,formaldehy 4.7498-8
 HCOOH           3.2978-8
 H2O             2.6855-1
 H2O2            2.773-12
 *O              8.785-10
 *OH             4.6303-6
 *O2             2.654-10

  * THERMODYNAMIC PROPERTIES FITTED TO 20000.K









         THERMODYNAMIC EQUILIBRIUM COMBUSTION PROPERTIES AT ASSIGNED

                                   PRESSURES

 CASE =                

             REACTANT                       MOLES         ENERGY      TEMP
                                                         KJ/KG-MOL      K
 FUEL        CH3OH                        1.0000000   -200858.418    300.000
 OXIDANT     O2                           1.5000000        54.358    300.000

 O/F=    0.46812  %FUEL= 68.114320  R,EQ.RATIO= 2.064516  PHI,EQ.RATIO= 3.200000

 THERMODYNAMIC PROPERTIES

 P, BAR            1.0000
 T, K             1660.39
 RHO, KG/CU M    1.1358-1
 H, KJ/KG        -4269.29
 U, KJ/KG        -5149.74
 G, KJ/KG        -29379.7
 S, KJ/(KG)(K)    15.1232

 M, (1/n)          15.680
 (dLV/dLP)t      -1.00002
 (dLV/dLT)p        1.0005
 Cp, KJ/(KG)(K)    2.5951
 GAMMAs            1.2571
 SON VEL,M/SEC     1052.1

 MOLE FRACTIONS

 CH2             3.393-14
 CH3             1.868-10
 CH2OH           3.636-13
 CH3O            2.168-14
 CH4             5.7760-8
 CH3OH           9.001-12
 *CO             2.7909-1
 *CO2            5.4232-2
 COOH            1.7165-9
 C2H2,acetylene  1.480-12
 CH2CO,ketene    8.509-12
 O(CH)2O         5.629-16
 CH3CO,acetyl    6.190-16
 C2H4            4.091-14
 CH3CHO,ethanal  2.238-15
 CH3COOH         2.643-16
 C2O             1.019-15
 C3O2            1.370-15
 *H              6.4430-5
 HCO             1.5974-8
 HCCO            3.075-15
 HO2             7.083-14
 *H2             4.0836-1
 HCHO,formaldehy 4.9175-8
 HCOOH           3.2684-8
 H2O             2.5826-1
 H2O2            1.044-12
 *O              2.417-10
 *OH             2.1961-6
 *O2             6.910-11

  * THERMODYNAMIC PROPERTIES FITTED TO 20000.K









         THERMODYNAMIC EQUILIBRIUM COMBUSTION PROPERTIES AT ASSIGNED

                                   PRESSURES

 CASE =                

             REACTANT                       MOLES         ENERGY      TEMP
                                                         KJ/KG-MOL      K
 FUEL        CH3OH                        1.0000000   -200858.418    300.000
 OXIDANT     O2                           1.5000000        54.358    300.000

 O/F=    0.45393  %FUEL= 68.778884  R,EQ.RATIO= 2.095238  PHI,EQ.RATIO= 3.300000

 THERMODYNAMIC PROPERTIES

 P, BAR            1.0000
 T, K             1605.60
 RHO, KG/CU M    1.1632-1
 H, KJ/KG        -4310.96
 U, KJ/KG        -5170.65
 G, KJ/KG        -28617.4
 S, KJ/(KG)(K)    15.1386

 M, (1/n)          15.529
 (dLV/dLP)t      -1.00001
 (dLV/dLT)p        1.0003
 Cp, KJ/(KG)(K)    2.5980
 GAMMAs            1.2598
 SON VEL,M/SEC     1040.7

 MOLE FRACTIONS

 CH2             2.001-14
 CH3             2.056-10
 CH2OH           3.040-13
 CH3O            1.649-14
 CH4             1.1217-7
 CH3OH           1.217-11
 *CO             2.7868-1
 *CO2            5.4647-2
 COOH            1.1276-9
 C2H2,acetylene  1.924-12
 CH2CO,ketene    1.118-11
 O(CH)2O         5.509-16
 CH3CO,acetyl    7.485-16
 C2H4            8.647-14
 CH3CHO,ethanal  4.097-15
 CH3COOH         4.619-16
 C2H6            1.494-16
 C2O             5.542-16
 C3O2            1.436-15
 *H              3.7347-5
 HCO             1.1121-8
 HCCO            2.259-15
 HO2             1.796-14
 *H2             4.1826-1
 HCHO,formaldehy 5.0832-8
 HCOOH           3.2462-8
 H2O             2.4838-1
 H2O2            3.877-13
 *O              6.511-11
 *OH             1.0289-6
 *O2             1.765-11

  * THERMODYNAMIC PROPERTIES FITTED TO 20000.K









         THERMODYNAMIC EQUILIBRIUM COMBUSTION PROPERTIES AT ASSIGNED

                                   PRESSURES

 CASE =                

             REACTANT                       MOLES         ENERGY      TEMP
                                                         KJ/KG-MOL      K
 FUEL        CH3OH                        1.0000000   -200858.418    300.000
 OXIDANT     O2                           1.5000000        54.358    300.000

 O/F=    0.44058  %FUEL= 69.416312  R,EQ.RATIO= 2.125000  PHI,EQ.RATIO= 3.400000

 THERMODYNAMIC PROPERTIES

 P, BAR            1.0000
 T, K             1553.38
 RHO, KG/CU M    1.1913-1
 H, KJ/KG        -4350.93
 U, KJ/KG        -5190.36
 G, KJ/KG        -27885.0
 S, KJ/(KG)(K)    15.1503

 M, (1/n)          15.386
 (dLV/dLP)t      -1.00001
 (dLV/dLT)p        1.0002
 Cp, KJ/(KG)(K)    2.6028
 GAMMAs            1.2621
 SON VEL,M/SEC     1029.3

 MOLE FRACTIONS

 CH2             1.163-14
 CH3             2.253-10
 CH2OH           2.525-13
 CH3O            1.246-14
 CH4             2.1923-7
 CH3OH           1.650-11
 *CO             2.7809-1
 *CO2            5.5242-2
 COOH            7.365-10
 C2H2,acetylene  2.495-12
 CH2CO,ketene    1.468-11
 O(CH)2O         5.383-16
 CH3CO,acetyl    9.036-16
 C2H4            1.836-13
 CH3CHO,ethanal  7.540-15
 CH3COOH         8.140-16
 C2H6            4.641-16
 C2O             2.970-16
 C3O2            1.502-15
 *H              2.1422-5
 HCO             7.6802-9
 HCCO            1.644-15
 HO2             4.460-15
 *H2             4.2778-1
 HCHO,formaldehy 5.2473-8
 HCOOH           3.2311-8
 H2O             2.3887-1
 H2O2            1.419-13
 *O              1.717-11
 *OH             4.7615-7
 *O2             4.420-12

  * THERMODYNAMIC PROPERTIES FITTED TO 20000.K









         THERMODYNAMIC EQUILIBRIUM COMBUSTION PROPERTIES AT ASSIGNED

                                   PRESSURES

 CASE =                

             REACTANT                       MOLES         ENERGY      TEMP
                                                         KJ/KG-MOL      K
 FUEL        CH3OH                        1.0000000   -200858.418    300.000
 OXIDANT     O2                           1.5000000        54.358    300.000

 O/F=    0.42800  %FUEL= 70.028233  R,EQ.RATIO= 2.153846  PHI,EQ.RATIO= 3.500000

 THERMODYNAMIC PROPERTIES

 P, BAR            1.0000
 T, K             1503.59
 RHO, KG/CU M    1.2200-1
 H, KJ/KG        -4389.30
 U, KJ/KG        -5208.98
 G, KJ/KG        -27181.6
 S, KJ/(KG)(K)    15.1585

 M, (1/n)          15.252
 (dLV/dLP)t      -1.00000
 (dLV/dLT)p        1.0001
 Cp, KJ/(KG)(K)    2.6094
 GAMMAs            1.2642
 SON VEL,M/SEC     1017.9

 MOLE FRACTIONS

 CH2             6.658-15
 CH3             2.461-10
 CH2OH           2.085-13
 CH3O            9.343-15
 CH4             4.3141-7
 CH3OH           2.241-11
 *CO             2.7732-1
 *CO2            5.6007-2
 COOH            4.783-10
 C2H2,acetylene  3.228-12
 CH2CO,ketene    1.930-11
 O(CH)2O         5.253-16
 CH3CO,acetyl    1.090-15
 C2H4            3.918-13
 CH3CHO,ethanal  1.395-14
 CH3COOH         1.447-15
 C2H6            1.458-15
 C2O             1.570-16
 C3O2            1.570-15
 *H              1.2162-5
 HCO             5.2618-9
 HCCO            1.185-15
 HO2             1.085-15
 *H2             4.3695-1
 HCHO,formaldehy 5.4103-8
 HCOOH           3.2226-8
 H2O             2.2971-1
 H2O2            5.121-14
 *O              4.435-12
 *OH             2.1767-7
 *O2             1.085-12

  * THERMODYNAMIC PROPERTIES FITTED TO 20000.K









         THERMODYNAMIC EQUILIBRIUM COMBUSTION PROPERTIES AT ASSIGNED

                                   PRESSURES

 CASE =                

             REACTANT                       MOLES         ENERGY      TEMP
                                                         KJ/KG-MOL      K
 FUEL        CH3OH                        1.0000000   -200858.418    300.000
 OXIDANT     O2                           1.5000000        54.358    300.000

 O/F=    0.41611  %FUEL= 70.616147  R,EQ.RATIO= 2.181818  PHI,EQ.RATIO= 3.600000

 THERMODYNAMIC PROPERTIES

 P, BAR            1.0000
 T, K             1456.10
 RHO, KG/CU M    1.2493-1
 H, KJ/KG        -4426.16
 U, KJ/KG        -5226.62
 G, KJ/KG        -26506.0
 S, KJ/(KG)(K)    15.1637

 M, (1/n)          15.125
 (dLV/dLP)t      -1.00001
 (dLV/dLT)p        1.0001
 Cp, KJ/(KG)(K)    2.6175
 GAMMAs            1.2659
 SON VEL,M/SEC     1006.6

 MOLE FRACTIONS

 CH2             3.759-15
 CH3             2.678-10
 CH2OH           1.711-13
 CH3O            6.962-15
 CH4             8.5505-7
 CH3OH           3.052-11
 *CO             2.7640-1
 *CO2            5.6935-2
 COOH            3.088-10
 C2H2,acetylene  4.169-12
 CH2CO,ketene    2.541-11
 O(CH)2O         5.121-16
 CH3CO,acetyl    1.313-15
 C2H4            8.414-13
 CH3CHO,ethanal  2.598-14
 CH3COOH         2.595-15
 C2H6            4.633-15
 C3O2            1.638-15
 *H              6.8348-6
 HCO             3.5769-9
 HCCO            8.470-16
 HO2             2.585-16
 *H2             4.4582-1
 HCHO,formaldehy 5.5724-8
 HCOOH           3.2205-8
 H2O             2.2084-1
 H2O2            1.821-14
 *O              1.121-12
 *OH             9.8285-8
 *O2             2.613-13

  * THERMODYNAMIC PROPERTIES FITTED TO 20000.K



