
 *******************************************************************************

         NASA-GLENN CHEMICAL EQUILIBRIUM PROGRAM CEA2, MAY 21, 2004
                   BY  BONNIE MCBRIDE AND SANFORD GORDON
      REFS: NASA RP-1311, PART I, 1994 AND NASA RP-1311, PART II, 1996

 *******************************************************************************



 problem    r,eq.ratio=2.1,2.2,2.3,2.4,2.5,2.6,2.7,2.8,2.9,3,3.1,3.2,3.3,3.4,3.5,
 3.6,
       hp   p,bar=1,  t,k=3800
 react
   fuel=CH4 moles=1 t,k=300
   oxid=O2 moles=2 t,k=300
 output
      trace=1e-16 siunits short
 end




         THERMODYNAMIC EQUILIBRIUM COMBUSTION PROPERTIES AT ASSIGNED

                                   PRESSURES

 CASE =                

             REACTANT                       MOLES         ENERGY      TEMP
                                                         KJ/KG-MOL      K
 FUEL        CH4                          1.0000000    -74533.907    300.000
 OXIDANT     O2                           2.0000000        54.358    300.000

 O/F=    1.89965  %FUEL= 34.486929  R,EQ.RATIO= 2.100000  PHI,EQ.RATIO= 2.100000

 THERMODYNAMIC PROPERTIES

 P, BAR            1.0000
 T, K             2508.73
 RHO, KG/CU M    7.3631-2
 H, KJ/KG        -1601.16
 U, KJ/KG        -2959.30
 G, KJ/KG        -42908.9
 S, KJ/(KG)(K)    16.4656

 M, (1/n)          15.359
 (dLV/dLP)t      -1.00478
 (dLV/dLT)p        1.1084
 Cp, KJ/(KG)(K)    4.0745
 GAMMAs            1.1883
 SON VEL,M/SEC     1270.4

 MOLE FRACTIONS

 *C              1.954-12
 *CH             1.439-12
 CH2             1.402-11
 CH3             1.779-10
 CH2OH           3.080-12
 CH3O            5.044-13
 CH4             2.398-10
 CH3OH           7.453-13
 *CO             2.9761-1
 *CO2            3.2553-2
 COOH            7.8634-8
 C2H             1.475-15
 C2H2,acetylene  4.747-13
 C2H2,vinylidene 3.812-16
 CH2CO,ketene    1.443-12
 O(CH)2O         1.072-15
 CH3CO,acetyl    2.741-16
 C2H4            1.318-16
 C2O             8.751-13
 C3O2            2.020-15
 *H              1.6287-2
 HCO             6.7534-7
 HCCO            1.464-13
 HO2             2.1570-8
 *H2             3.8740-1
 HCHO,formaldehy 4.6935-8
 HCOOH           2.9269-8
 H2O             2.6352-1
 H2O2            8.0390-9
 *O              6.3692-5
 *OH             2.5529-3
 *O2             1.7753-5
 O3              2.808-14

  * THERMODYNAMIC PROPERTIES FITTED TO 20000.K









         THERMODYNAMIC EQUILIBRIUM COMBUSTION PROPERTIES AT ASSIGNED

                                   PRESSURES

 CASE =                

             REACTANT                       MOLES         ENERGY      TEMP
                                                         KJ/KG-MOL      K
 FUEL        CH4                          1.0000000    -74533.907    300.000
 OXIDANT     O2                           2.0000000        54.358    300.000

 O/F=    1.81330  %FUEL= 35.545425  R,EQ.RATIO= 2.200000  PHI,EQ.RATIO= 2.200000

 THERMODYNAMIC PROPERTIES

 P, BAR            1.0000
 T, K             2402.00
 RHO, KG/CU M    7.4889-2
 H, KJ/KG        -1650.36
 U, KJ/KG        -2985.66
 G, KJ/KG        -41626.5
 S, KJ/(KG)(K)    16.6429

 M, (1/n)          14.956
 (dLV/dLP)t      -1.00292
 (dLV/dLT)p        1.0685
 Cp, KJ/(KG)(K)    3.6593
 GAMMAs            1.2056
 SON VEL,M/SEC     1268.8

 MOLE FRACTIONS

 *C              6.713-13
 *CH             6.676-13
 CH2             1.060-11
 CH3             2.356-10
 CH2OH           2.880-12
 CH3O            4.289-13
 CH4             5.212-10
 CH3OH           1.073-12
 *CO             3.0192-1
 *CO2            2.9474-2
 COOH            5.0509-8
 C2H             1.153-15
 C2H2,acetylene  7.932-13
 C2H2,vinylidene 4.377-16
 CH2CO,ketene    2.176-12
 O(CH)2O         1.114-15
 CH3CO,acetyl    3.915-16
 C2H4            3.507-16
 C2O             5.882-13
 C3O2            2.392-15
 *H              1.0383-2
 HCO             5.1396-7
 HCCO            1.310-13
 HO2             5.4099-9
 *H2             4.1657-1
 HCHO,formaldehy 5.1211-8
 HCOOH           2.7230-8
 H2O             2.4042-1
 H2O2            2.8701-9
 *O              1.8319-5
 *OH             1.2209-3
 *O2             4.3720-6
 O3              2.465-15

  * THERMODYNAMIC PROPERTIES FITTED TO 20000.K









         THERMODYNAMIC EQUILIBRIUM COMBUSTION PROPERTIES AT ASSIGNED

                                   PRESSURES

 CASE =                

             REACTANT                       MOLES         ENERGY      TEMP
                                                         KJ/KG-MOL      K
 FUEL        CH4                          1.0000000    -74533.907    300.000
 OXIDANT     O2                           2.0000000        54.358    300.000

 O/F=    1.73446  %FUEL= 36.570260  R,EQ.RATIO= 2.300000  PHI,EQ.RATIO= 2.300000

 THERMODYNAMIC PROPERTIES

 P, BAR            1.0000
 T, K             2290.39
 RHO, KG/CU M    7.6528-2
 H, KJ/KG        -1697.99
 U, KJ/KG        -3004.70
 G, KJ/KG        -40187.4
 S, KJ/(KG)(K)    16.8048

 M, (1/n)          14.574
 (dLV/dLP)t      -1.00167
 (dLV/dLT)p        1.0408
 Cp, KJ/(KG)(K)    3.3548
 GAMMAs            1.2233
 SON VEL,M/SEC     1264.3

 MOLE FRACTIONS

 *C              1.909-13
 *CH             2.650-13
 CH2             7.282-12
 CH3             3.043-10
 CH2OH           2.570-12
 CH3O            3.440-13
 CH4             1.1796-9
 CH3OH           1.555-12
 *CO             3.0525-1
 *CO2            2.6968-2
 COOH            3.0860-8
 C2H             8.055-16
 C2H2,acetylene  1.309-12
 C2H2,vinylidene 4.692-16
 CH2CO,ketene    3.284-12
 O(CH)2O         1.131-15
 C2H3,vinyl      1.027-16
 CH3CO,acetyl    5.502-16
 C2H4            9.660-16
 C2O             3.595-13
 C3O2            2.786-15
 *H              6.1379-3
 HCO             3.7002-7
 HCCO            1.098-13
 HO2             1.1640-9
 *H2             4.4306-1
 HCHO,formaldehy 5.5164-8
 HCOOH           2.5195-8
 H2O             2.1804-1
 H2O2            9.156-10
 *O              4.5272-6
 *OH             5.3398-4
 *O2             9.3081-7
 O3              1.666-16

  * THERMODYNAMIC PROPERTIES FITTED TO 20000.K









         THERMODYNAMIC EQUILIBRIUM COMBUSTION PROPERTIES AT ASSIGNED

                                   PRESSURES

 CASE =                

             REACTANT                       MOLES         ENERGY      TEMP
                                                         KJ/KG-MOL      K
 FUEL        CH4                          1.0000000    -74533.907    300.000
 OXIDANT     O2                           2.0000000        54.358    300.000

 O/F=    1.66219  %FUEL= 37.563015  R,EQ.RATIO= 2.400000  PHI,EQ.RATIO= 2.400000

 THERMODYNAMIC PROPERTIES

 P, BAR            1.0000
 T, K             2175.96
 RHO, KG/CU M    7.8546-2
 H, KJ/KG        -1744.13
 U, KJ/KG        -3017.27
 G, KJ/KG        -38629.8
 S, KJ/(KG)(K)    16.9515

 M, (1/n)          14.211
 (dLV/dLP)t      -1.00089
 (dLV/dLT)p        1.0228
 Cp, KJ/(KG)(K)    3.1456
 GAMMAs            1.2402
 SON VEL,M/SEC     1256.6

 MOLE FRACTIONS

 *C              4.476-14
 *CH             8.987-14
 CH2             4.551-12
 CH3             3.857-10
 CH2OH           2.196-12
 CH3O            2.612-13
 CH4             2.8071-9
 CH3OH           2.284-12
 *CO             3.0780-1
 *CO2            2.4938-2
 COOH            1.7915-8
 C2H             5.040-16
 C2H2,acetylene  2.150-12
 C2H2,vinylidene 4.721-16
 CH2CO,ketene    4.998-12
 O(CH)2O         1.127-15
 C2H3,vinyl      1.460-16
 CH3CO,acetyl    7.669-16
 C2H4            2.787-15
 CH3CHO,ethanal  1.806-16
 C2O             1.998-13
 C3O2            3.208-15
 *H              3.3603-3
 HCO             2.5202-7
 HCCO            8.661-14
 HO2             2.132-10
 *H2             4.6702-1
 HCHO,formaldehy 5.8847-8
 HCOOH           2.3239-8
 H2O             1.9667-1
 H2O2            2.597-10
 *O              9.5447-7
 *OH             2.1278-4
 *O2             1.6984-7

  * THERMODYNAMIC PROPERTIES FITTED TO 20000.K









         THERMODYNAMIC EQUILIBRIUM COMBUSTION PROPERTIES AT ASSIGNED

                                   PRESSURES

 CASE =                

             REACTANT                       MOLES         ENERGY      TEMP
                                                         KJ/KG-MOL      K
 FUEL        CH4                          1.0000000    -74533.907    300.000
 OXIDANT     O2                           2.0000000        54.358    300.000

 O/F=    1.59571  %FUEL= 38.525173  R,EQ.RATIO= 2.500000  PHI,EQ.RATIO= 2.500000

 THERMODYNAMIC PROPERTIES

 P, BAR            1.0000
 T, K             2060.96
 RHO, KG/CU M    8.0931-2
 H, KJ/KG        -1788.85
 U, KJ/KG        -3024.48
 G, KJ/KG        -36996.2
 S, KJ/(KG)(K)    17.0830

 M, (1/n)          13.868
 (dLV/dLP)t      -1.00045
 (dLV/dLT)p        1.0119
 Cp, KJ/(KG)(K)    3.0132
 GAMMAs            1.2552
 SON VEL,M/SEC     1245.4

 MOLE FRACTIONS

 *C              8.662-15
 *CH             2.610-14
 CH2             2.598-12
 CH3             4.820-10
 CH2OH           1.802-12
 CH3O            1.883-13
 CH4             7.0737-9
 CH3OH           3.419-12
 *CO             3.0974-1
 *CO2            2.3295-2
 COOH            9.8844-9
 C2H             2.840-16
 C2H2,acetylene  3.539-12
 C2H2,vinylidene 4.485-16
 CH2CO,ketene    7.708-12
 O(CH)2O         1.107-15
 C2H3,vinyl      2.031-16
 CH3CO,acetyl    1.067-15
 C2H4            8.506-15
 CH3CHO,ethanal  4.251-16
 C2O             1.014-13
 C3O2            3.671-15
 *H              1.7052-3
 HCO             1.6262-7
 HCCO            6.446-14
 HO2             3.315-11
 *H2             4.8873-1
 HCHO,formaldehy 6.2343-8
 HCOOH           2.1411-8
 H2O             1.7645-1
 H2O2            6.540-11
 *O              1.7132-7
 *OH             7.7164-5
 *O2             2.6462-8

  * THERMODYNAMIC PROPERTIES FITTED TO 20000.K









         THERMODYNAMIC EQUILIBRIUM COMBUSTION PROPERTIES AT ASSIGNED

                                   PRESSURES

 CASE =                

             REACTANT                       MOLES         ENERGY      TEMP
                                                         KJ/KG-MOL      K
 FUEL        CH4                          1.0000000    -74533.907    300.000
 OXIDANT     O2                           2.0000000        54.358    300.000

 O/F=    1.53433  %FUEL= 39.458128  R,EQ.RATIO= 2.600000  PHI,EQ.RATIO= 2.600000

 THERMODYNAMIC PROPERTIES

 P, BAR            1.0000
 T, K             1947.38
 RHO, KG/CU M    8.3665-2
 H, KJ/KG        -1832.21
 U, KJ/KG        -3027.45
 G, KJ/KG        -35326.5
 S, KJ/(KG)(K)    17.1997

 M, (1/n)          13.547
 (dLV/dLP)t      -1.00021
 (dLV/dLT)p        1.0058
 Cp, KJ/(KG)(K)    2.9372
 GAMMAs            1.2678
 SON VEL,M/SEC     1231.0

 MOLE FRACTIONS

 *C              1.390-15
 *CH             6.522-15
 CH2             1.361-12
 CH3             5.967-10
 CH2OH           1.426-12
 CH3O            1.296-13
 CH4             1.8974-8
 CH3OH           5.234-12
 *CO             3.1123-1
 *CO2            2.1965-2
 COOH            5.1865-9
 C2H             1.451-16
 C2H2,acetylene  5.875-12
 C2H2,vinylidene 4.051-16
 CH2CO,ketene    1.210-11
 O(CH)2O         1.076-15
 C2H3,vinyl      2.784-16
 CH3CO,acetyl    1.491-15
 C2H4            2.765-14
 CH3CHO,ethanal  1.056-15
 C2O             4.709-14
 C3O2            4.191-15
 *H              8.0352-4
 HCO             9.9602-8
 HCCO            4.549-14
 HO2             4.372-12
 *H2             5.0855-1
 HCHO,formaldehy 6.5748-8
 HCOOH           1.9731-8
 H2O             1.5742-1
 H2O2            1.461-11
 *O              2.6189-8
 *OH             2.5468-5
 *O2             3.5152-9

  * THERMODYNAMIC PROPERTIES FITTED TO 20000.K









         THERMODYNAMIC EQUILIBRIUM COMBUSTION PROPERTIES AT ASSIGNED

                                   PRESSURES

 CASE =                

             REACTANT                       MOLES         ENERGY      TEMP
                                                         KJ/KG-MOL      K
 FUEL        CH4                          1.0000000    -74533.907    300.000
 OXIDANT     O2                           2.0000000        54.358    300.000

 O/F=    1.47750  %FUEL= 40.363188  R,EQ.RATIO= 2.700000  PHI,EQ.RATIO= 2.700000

 THERMODYNAMIC PROPERTIES

 P, BAR            1.0000
 T, K             1836.67
 RHO, KG/CU M    8.6740-2
 H, KJ/KG        -1874.28
 U, KJ/KG        -3027.15
 G, KJ/KG        -33651.6
 S, KJ/(KG)(K)    17.3015

 M, (1/n)          13.246
 (dLV/dLP)t      -1.00009
 (dLV/dLT)p        1.0027
 Cp, KJ/(KG)(K)    2.8989
 GAMMAs            1.2781
 SON VEL,M/SEC     1213.9

 MOLE FRACTIONS

 *C              1.854-16
 *CH             1.407-15
 CH2             6.562-13
 CH3             7.349-10
 CH2OH           1.090-12
 CH3O            8.531-14
 CH4             5.4448-8
 CH3OH           8.221-12
 *CO             3.1239-1
 *CO2            2.0886-2
 COOH            2.5874-9
 C2H2,acetylene  9.895-12
 C2H2,vinylidene 3.499-16
 CH2CO,ketene    1.944-11
 O(CH)2O         1.038-15
 C2H3,vinyl      3.784-16
 CH3CO,acetyl    2.104-15
 C2H4            9.647-14
 CH3CHO,ethanal  2.781-15
 CH3COOH         1.326-16
 C2O             2.011-14
 C3O2            4.794-15
 *H              3.5195-4
 HCO             5.7974-8
 HCCO            3.056-14
 HO2             4.879-13
 *H2             5.2680-1
 HCHO,formaldehy 6.9155-8
 HCOOH           1.8204-8
 H2O             1.3957-1
 H2O2            2.893-12
 *O              3.4048-9
 *OH             7.6419-6
 *O2             3.969-10

  * THERMODYNAMIC PROPERTIES FITTED TO 20000.K









         THERMODYNAMIC EQUILIBRIUM COMBUSTION PROPERTIES AT ASSIGNED

                                   PRESSURES

 CASE =                

             REACTANT                       MOLES         ENERGY      TEMP
                                                         KJ/KG-MOL      K
 FUEL        CH4                          1.0000000    -74533.907    300.000
 OXIDANT     O2                           2.0000000        54.358    300.000

 O/F=    1.42474  %FUEL= 41.241587  R,EQ.RATIO= 2.800000  PHI,EQ.RATIO= 2.800000

 THERMODYNAMIC PROPERTIES

 P, BAR            1.0000
 T, K             1729.67
 RHO, KG/CU M    9.0154-2
 H, KJ/KG        -1915.10
 U, KJ/KG        -3024.32
 G, KJ/KG        -31991.9
 S, KJ/(KG)(K)    17.3888

 M, (1/n)          12.965
 (dLV/dLP)t      -1.00004
 (dLV/dLT)p        1.0011
 Cp, KJ/(KG)(K)    2.8835
 GAMMAs            1.2868
 SON VEL,M/SEC     1194.7

 MOLE FRACTIONS

 *CH             2.613-16
 CH2             2.916-13
 CH3             9.034-10
 CH2OH           8.063-13
 CH3O            5.379-14
 CH4             1.6818-7
 CH3OH           1.329-11
 *CO             3.1330-1
 *CO2            2.0011-2
 COOH            1.2247-9
 C2H2,acetylene  1.701-11
 C2H2,vinylidene 2.900-16
 CH2CO,ketene    3.208-11
 O(CH)2O         9.956-16
 C2H3,vinyl      5.131-16
 CH3CO,acetyl    3.012-15
 C2H4            3.643-13
 CH3CHO,ethanal  7.828-15
 CH3COOH         3.247-16
 C2H6            3.817-16
 C2O             7.893-15
 C3O2            5.514-15
 *H              1.4309-4
 HCO             3.2048-8
 HCCO            1.957-14
 HO2             4.571-14
 *H2             5.4371-1
 HCHO,formaldehy 7.2645-8
 HCOOH           1.6822-8
 H2O             1.2283-1
 H2O2            5.041-13
 *O              3.741-10
 *OH             2.0762-6
 *O2             3.778-11

  * THERMODYNAMIC PROPERTIES FITTED TO 20000.K









         THERMODYNAMIC EQUILIBRIUM COMBUSTION PROPERTIES AT ASSIGNED

                                   PRESSURES

 CASE =                

             REACTANT                       MOLES         ENERGY      TEMP
                                                         KJ/KG-MOL      K
 FUEL        CH4                          1.0000000    -74533.907    300.000
 OXIDANT     O2                           2.0000000        54.358    300.000

 O/F=    1.37561  %FUEL= 42.094485  R,EQ.RATIO= 2.900000  PHI,EQ.RATIO= 2.900000

 THERMODYNAMIC PROPERTIES

 P, BAR            1.0000
 T, K             1626.71
 RHO, KG/CU M    9.3922-2
 H, KJ/KG        -1954.74
 U, KJ/KG        -3019.46
 G, KJ/KG        -30359.5
 S, KJ/(KG)(K)    17.4614

 M, (1/n)          12.703
 (dLV/dLP)t      -1.00002
 (dLV/dLT)p        1.0005
 Cp, KJ/(KG)(K)    2.8808
 GAMMAs            1.2943
 SON VEL,M/SEC     1173.9

 MOLE FRACTIONS

 CH2             1.191-13
 CH3             1.1121-9
 CH2OH           5.764-13
 CH3O            3.245-14
 CH4             5.6390-7
 CH3OH           2.220-11
 *CO             3.1402-1
 *CO2            1.9299-2
 COOH            5.476-10
 C2H2,acetylene  3.004-11
 C2H2,vinylidene 2.313-16
 CH2CO,ketene    5.465-11
 O(CH)2O         9.512-16
 C2H3,vinyl      6.976-16
 CH3CO,acetyl    4.393-15
 C2H4            1.505-12
 CH3CHO,ethanal  2.374-14
 CH3COOH         8.573-16
 C2H6            3.030-15
 C2O             2.839-15
 C3O2            6.398-15
 *H              5.3778-5
 HCO             1.6782-8
 HCCO            1.195-14
 HO2             3.542-15
 *H2             5.5949-1
 HCHO,formaldehy 7.6294-8
 HCOOH           1.5567-8
 H2O             1.0713-1
 H2O2            7.649-14
 *O              3.431-11
 *OH             5.0677-7
 *O2             2.987-12

  * THERMODYNAMIC PROPERTIES FITTED TO 20000.K









         THERMODYNAMIC EQUILIBRIUM COMBUSTION PROPERTIES AT ASSIGNED

                                   PRESSURES

 CASE =                

             REACTANT                       MOLES         ENERGY      TEMP
                                                         KJ/KG-MOL      K
 FUEL        CH4                          1.0000000    -74533.907    300.000
 OXIDANT     O2                           2.0000000        54.358    300.000

 O/F=    1.32975  %FUEL= 42.922978  R,EQ.RATIO= 3.000000  PHI,EQ.RATIO= 3.000000

 THERMODYNAMIC PROPERTIES

 P, BAR            1.0000
 T, K             1527.85
 RHO, KG/CU M    9.8071-2
 H, KJ/KG        -1993.25
 U, KJ/KG        -3012.92
 G, KJ/KG        -28760.6
 S, KJ/(KG)(K)    17.5196

 M, (1/n)          12.458
 (dLV/dLP)t      -1.00001
 (dLV/dLT)p        1.0002
 Cp, KJ/(KG)(K)    2.8849
 GAMMAs            1.3011
 SON VEL,M/SEC     1151.8

 MOLE FRACTIONS

 CH2             4.445-14
 CH3             1.3752-9
 CH2OH           3.975-13
 CH3O            1.868-14
 CH4             2.0751-6
 CH3OH           3.848-11
 *CO             3.1461-1
 *CO2            1.8717-2
 COOH            2.297-10
 C2H2,acetylene  5.488-11
 C2H2,vinylidene 1.777-16
 CH2CO,ketene    9.672-11
 O(CH)2O         9.061-16
 C2H3,vinyl      9.562-16
 CH3CO,acetyl    6.567-15
 C2H4            6.905-12
 CH3CHO,ethanal  7.838-14
 CH3COOH         2.463-15
 C2H5            1.974-16
 C2H6            2.817-14
 C2O             9.302-16
 C3O2            7.517-15
 *H              1.8553-5
 HCO             8.2854-9
 HCCO            6.941-15
 HO2             2.222-16
 *H2             5.7425-1
 HCHO,formaldehy 8.0176-8
 HCOOH           1.4418-8
 H2O             9.2395-2
 H2O2            9.944-15
 *O              2.576-12
 *OH             1.0981-7
 *O2             1.920-13

  * THERMODYNAMIC PROPERTIES FITTED TO 20000.K









         THERMODYNAMIC EQUILIBRIUM COMBUSTION PROPERTIES AT ASSIGNED

                                   PRESSURES

 CASE =                

             REACTANT                       MOLES         ENERGY      TEMP
                                                         KJ/KG-MOL      K
 FUEL        CH4                          1.0000000    -74533.907    300.000
 OXIDANT     O2                           2.0000000        54.358    300.000

 O/F=    1.28686  %FUEL= 43.728097  R,EQ.RATIO= 3.100000  PHI,EQ.RATIO= 3.100000

 THERMODYNAMIC PROPERTIES

 P, BAR            1.0000
 T, K             1432.97
 RHO, KG/CU M    1.0264-1
 H, KJ/KG        -2030.67
 U, KJ/KG        -3004.94
 G, KJ/KG        -27198.3
 S, KJ/(KG)(K)    17.5632

 M, (1/n)          12.229
 (dLV/dLP)t      -1.00004
 (dLV/dLT)p        1.0004
 Cp, KJ/(KG)(K)    2.8937
 GAMMAs            1.3074
 SON VEL,M/SEC     1128.6

 MOLE FRACTIONS

 CH2             1.506-14
 CH3             1.7144-9
 CH2OH           2.636-13
 CH3O            1.021-14
 CH4             8.4972-6
 CH3OH           6.960-11
 *CO             3.1510-1
 *CO2            1.8232-2
 COOH            8.959-11
 C2H2,acetylene  1.047-10
 C2H2,vinylidene 1.316-16
 CH2CO,ketene    1.792-10
 O(CH)2O         8.612-16
 C2H3,vinyl      1.330-15
 CH3CO,acetyl    1.012-14
 C2H4            3.578-11
 CH3CHO,ethanal  2.856-13
 CH3COOH         7.786-15
 C2H5            7.448-16
 C2H6            3.144-13
 C2O             2.753-16
 C3O2            8.978-15
 *H              5.8191-6
 HCO             3.8323-9
 HCCO            3.825-15
 *H2             5.8810-1
 HCHO,formaldehy 8.4365-8
 HCOOH           1.3353-8
 H2O             7.8552-2
 H2O2            1.083-15
 *O              1.544-13
 *OH             2.0795-8
 *O2             9.755-15

  * THERMODYNAMIC PROPERTIES FITTED TO 20000.K









         THERMODYNAMIC EQUILIBRIUM COMBUSTION PROPERTIES AT ASSIGNED

                                   PRESSURES

 CASE =                

             REACTANT                       MOLES         ENERGY      TEMP
                                                         KJ/KG-MOL      K
 FUEL        CH4                          1.0000000    -74533.907    300.000
 OXIDANT     O2                           2.0000000        54.358    300.000

 O/F=    1.24664  %FUEL= 44.510818  R,EQ.RATIO= 3.200000  PHI,EQ.RATIO= 3.200000

 THERMODYNAMIC PROPERTIES

 P, BAR            1.0000
 T, K             1341.99
 RHO, KG/CU M    1.0768-1
 H, KJ/KG        -2067.05
 U, KJ/KG        -2995.73
 G, KJ/KG        -25675.5
 S, KJ/(KG)(K)    17.5921

 M, (1/n)          12.015
 (dLV/dLP)t      -1.00016
 (dLV/dLT)p        1.0017
 Cp, KJ/(KG)(K)    2.9119
 GAMMAs            1.3128
 SON VEL,M/SEC     1104.2

 MOLE FRACTIONS

 CH2             4.589-15
 CH3             2.1631-9
 CH2OH           1.674-13
 CH3O            5.274-15
 CH4             3.9314-5
 CH3OH           1.321-10
 *CO             3.1552-1
 *CO2            1.7804-2
 COOH            3.214-11
 C2H2,acetylene  2.109-10
 CH2CO,ketene    3.502-10
 O(CH)2O         8.171-16
 C2H3,vinyl      1.889-15
 CH3CO,acetyl    1.618-14
 C2H4            2.137-10
 CH3CHO,ethanal  1.166-12
 CH3COOH         2.742-14
 C2H5            3.140-15
 C2H6            4.328-12
 C2H5OH          1.561-16
 C3H4,allene     2.307-16
 C3H4,propyne    6.989-16
 C3H6,propylene  3.900-16
 C3O2            1.096-14
 *H              1.6417-6
 HCO             1.6485-9
 HCCO            1.993-15
 *H2             6.0106-1
 HCHO,formaldehy 8.8932-8
 HCOOH           1.2342-8
 H2O             6.5575-2
 *O              7.180-15
 *OH             3.3800-9
 *O2             3.791-16

  * THERMODYNAMIC PROPERTIES FITTED TO 20000.K









         THERMODYNAMIC EQUILIBRIUM COMBUSTION PROPERTIES AT ASSIGNED

                                   PRESSURES

 CASE =                

             REACTANT                       MOLES         ENERGY      TEMP
                                                         KJ/KG-MOL      K
 FUEL        CH4                          1.0000000    -74533.907    300.000
 OXIDANT     O2                           2.0000000        54.358    300.000

 O/F=    1.20887  %FUEL= 45.272064  R,EQ.RATIO= 3.300000  PHI,EQ.RATIO= 3.300000

 THERMODYNAMIC PROPERTIES

 P, BAR            1.0000
 T, K             1255.42
 RHO, KG/CU M    1.1321-1
 H, KJ/KG        -2102.43
 U, KJ/KG        -2985.77
 G, KJ/KG        -24205.4
 S, KJ/(KG)(K)    17.6060

 M, (1/n)          11.817
 (dLV/dLP)t      -1.00082
 (dLV/dLT)p        1.0092
 Cp, KJ/(KG)(K)    2.9821
 GAMMAs            1.3149
 SON VEL,M/SEC     1077.7

 MOLE FRACTIONS

 CH2             1.258-15
 CH3             2.7694-9
 CH2OH           1.017-13
 CH3O            2.570-15
 CH4             2.0654-4
 CH3OH           2.633-10
 *CO             3.1588-1
 *CO2            1.7388-2
 COOH            1.056-11
 C2H2,acetylene  4.513-10
 CH2CO,ketene    7.255-10
 O(CH)2O         7.743-16
 C2H3,vinyl      2.759-15
 CH3CO,acetyl    2.694-14
 C2H4            1.4839-9
 CH3CHO,ethanal  5.358-12
 CH3COOH         1.079-13
 C2H5            1.491-14
 C2H6            7.422-11
 C2H5OH          1.151-15
 C3H4,allene     1.928-15
 C3H4,propyne    6.088-15
 C3H6,propylene  1.009-14
 C3O2            1.372-14
 *H              4.1565-7
 HCO             6.583-10
 HCCO            9.840-16
 *H2             6.1297-1
 HCHO,formaldehy 9.3898-8
 HCOOH           1.1359-8
 H2O             5.3555-2
 *O              2.567-16
 *OH             4.684-10

  * THERMODYNAMIC PROPERTIES FITTED TO 20000.K









         THERMODYNAMIC EQUILIBRIUM COMBUSTION PROPERTIES AT ASSIGNED

                                   PRESSURES

 CASE =                

             REACTANT                       MOLES         ENERGY      TEMP
                                                         KJ/KG-MOL      K
 FUEL        CH4                          1.0000000    -74533.907    300.000
 OXIDANT     O2                           2.0000000        54.358    300.000

 O/F=    1.17331  %FUEL= 46.012705  R,EQ.RATIO= 3.400000  PHI,EQ.RATIO= 3.400000

 THERMODYNAMIC PROPERTIES

 P, BAR            1.0000
 T, K             1177.33
 RHO, KG/CU M    1.1899-1
 H, KJ/KG        -2136.85
 U, KJ/KG        -2977.24
 G, KJ/KG        -22863.8
 S, KJ/(KG)(K)    17.6051

 M, (1/n)          11.648
 (dLV/dLP)t      -1.00438
 (dLV/dLT)p        1.0526
 Cp, KJ/(KG)(K)    3.3717
 GAMMAs            1.2990
 SON VEL,M/SEC     1044.8

 MOLE FRACTIONS

 CH2             3.315-16
 CH3             3.5529-9
 CH2OH           6.055-14
 CH3O            1.223-15
 CH4             1.1312-3
 CH3OH           5.305-10
 *CO             3.1599-1
 *CO2            1.6966-2
 COOH            3.354-12
 C2H2,acetylene  9.885-10
 CH2CO,ketene    1.5347-9
 O(CH)2O         7.338-16
 C2H3,vinyl      4.065-15
 CH3CO,acetyl    4.551-14
 C2H4            1.0856-8
 CH3CHO,ethanal  2.562-11
 CH3COOH         4.417-13
 C2H5            7.361-14
 C2H6            1.3710-9
 C2H5OH          8.916-15
 C3H3,2-propynl  2.793-16
 C3H4,allene     1.715-14
 C3H4,propyne    5.648-14
 C3H5,allyl      3.817-16
 C3H6,propylene  2.857-13
 C3H6,cyclo-     2.372-16
 C3H6O,acetone   5.900-16
 C3H8            5.703-15
 C3O2            1.742-14
 *H              1.0129-7
 HCO             2.555-10
 HCCO            4.771-16
 *H2             6.2279-1
 HCHO,formaldehy 9.8884-8
 HCOOH           1.0425-8
 H2O             4.3122-2
 *OH             6.110-11

  * THERMODYNAMIC PROPERTIES FITTED TO 20000.K









         THERMODYNAMIC EQUILIBRIUM COMBUSTION PROPERTIES AT ASSIGNED

                                   PRESSURES

 CASE =                

             REACTANT                       MOLES         ENERGY      TEMP
                                                         KJ/KG-MOL      K
 FUEL        CH4                          1.0000000    -74533.907    300.000
 OXIDANT     O2                           2.0000000        54.358    300.000

 O/F=    1.13979  %FUEL= 46.733567  R,EQ.RATIO= 3.500000  PHI,EQ.RATIO= 3.500000

 THERMODYNAMIC PROPERTIES

 P, BAR            1.0000
 T, K             1119.67
 RHO, KG/CU M    1.2403-1
 H, KJ/KG        -2170.36
 U, KJ/KG        -2976.61
 G, KJ/KG        -21866.6
 S, KJ/(KG)(K)    17.5911

 M, (1/n)          11.547
 (dLV/dLP)t      -1.01588
 (dLV/dLT)p        1.2016
 Cp, KJ/(KG)(K)    4.7774
 GAMMAs            1.2527
 SON VEL,M/SEC     1005.0

 MOLE FRACTIONS

 CH2             1.086-16
 CH3             4.3022-9
 CH2OH           3.899-14
 CH3O            6.565-16
 CH4             4.5471-3
 CH3OH           9.351-10
 *CO             3.1515-1
 *CO2            1.6668-2
 COOH            1.297-12
 C2H2,acetylene  1.8609-9
 CH2CO,ketene    2.8178-9
 O(CH)2O         6.974-16
 C2H3,vinyl      5.491-15
 CH3CO,acetyl    6.924-14
 C2H4            5.5135-8
 CH3CHO,ethanal  9.193-11
 CH3COOH         1.404-12
 C2H5            2.693-13
 C2H6            1.4916-8
 C2H5OH          4.749-14
 C3H3,2-propynl  7.652-16
 C3H4,allene     1.019-13
 C3H4,propyne    3.475-13
 C3H5,allyl      2.646-15
 C3H6,propylene  4.406-12
 C3H6,cyclo-     3.067-15
 C3H6O,acetone   7.129-15
 C3H6O,propanal  8.184-16
 C3H8            1.759-13
 C3O2            2.108-14
 C4H6,butadiene  4.751-16
 *H              3.1452-8
 HCO             1.161-10
 HCCO            2.595-16
 *H2             6.2770-1
 HCHO,formaldehy 1.0240-7
 HCOOH           9.7087-9
 H2O             3.5931-2
 *OH             1.133-11

  * THERMODYNAMIC PROPERTIES FITTED TO 20000.K









         THERMODYNAMIC EQUILIBRIUM COMBUSTION PROPERTIES AT ASSIGNED

                                   PRESSURES

 CASE =                

             REACTANT                       MOLES         ENERGY      TEMP
                                                         KJ/KG-MOL      K
 FUEL        CH4                          1.0000000    -74533.907    300.000
 OXIDANT     O2                           2.0000000        54.358    300.000

 O/F=    1.10813  %FUEL= 47.435433  R,EQ.RATIO= 3.600000  PHI,EQ.RATIO= 3.600000

 THERMODYNAMIC PROPERTIES

 P, BAR            1.0000
 T, K             1085.22
 RHO, KG/CU M    1.2766-1
 H, KJ/KG        -2202.98
 U, KJ/KG        -2986.31
 G, KJ/KG        -21268.4
 S, KJ/(KG)(K)    17.5683

 M, (1/n)          11.519
 (dLV/dLP)t      -1.03191
 (dLV/dLT)p        1.4192
 Cp, KJ/(KG)(K)    6.9278
 GAMMAs            1.2165
 SON VEL,M/SEC      976.2

 MOLE FRACTIONS

 CH3             4.7449-9
 CH2OH           2.892-14
 CH3O            4.331-16
 CH4             1.0888-2
 CH3OH           1.3282-9
 *CO             3.1309-1
 *CO2            1.6617-2
 COOH            7.048-13
 C2H2,acetylene  2.6959-9
 CH2CO,ketene    4.0674-9
 O(CH)2O         6.659-16
 C2H3,vinyl      6.393-15
 CH3CO,acetyl    8.827-14
 C2H4            1.5108-7
 CH3CHO,ethanal  2.037-10
 CH3COOH         2.916-12
 C2H5            5.946-13
 C2H6            6.6601-8
 C2H5OH          1.352-13
 C3H3,2-propynl  1.386-15
 C3H4,allene     3.043-13
 C3H4,propyne    1.061-12
 C3H5,allyl      8.705-15
 C3H6,propylene  2.426-11
 C3H6,cyclo-     1.507-14
 C3H6O,acetone   3.394-14
 C3H6O,propanal  3.446-15
 C3H8            1.510-12
 C3O2            2.328-14
 C4H6,butadiene  3.310-15
 C4H8,1-butene   5.175-16
 C4H8,cis2-buten 3.547-16
 C4H8,tr2-butene 4.056-16
 C4H8,isobutene  5.856-16
 C6H6            1.022-15
 *H              1.4706-8
 HCO             6.908-11
 HCCO            1.707-16
 *H2             6.2729-1
 HCHO,formaldehy 1.0366-7
 HCOOH           9.3053-9
 H2O             3.2115-2
 *OH             3.834-12

  * THERMODYNAMIC PROPERTIES FITTED TO 20000.K



