
 *******************************************************************************

         NASA-GLENN CHEMICAL EQUILIBRIUM PROGRAM CEA2, MAY 21, 2004
                   BY  BONNIE MCBRIDE AND SANFORD GORDON
      REFS: NASA RP-1311, PART I, 1994 AND NASA RP-1311, PART II, 1996

 *******************************************************************************



 problem    phi,eq.ratio=0.5,0.6,0.7,0.8,0.9,1,1.1,1.2,1.3,1.4,1.5,1.6,1.7,1.8,1.
 9,2,
     hp   p,bar=1,  t,k=3800
 react
   fuel=CO moles=1  t,k=300
   oxid=O2 moles=0.5  t,k=300
 output  short   trace=1e-16
 end




         THERMODYNAMIC EQUILIBRIUM COMBUSTION PROPERTIES AT ASSIGNED

                                   PRESSURES

 CASE =                

             REACTANT                       MOLES         ENERGY      TEMP
                                                         KJ/KG-MOL      K
 FUEL        CO                           1.0000000   -110481.283    300.000
 OXIDANT     O2                           0.5000000        54.358    300.000

 O/F=    1.14240  %FUEL= 46.676576  R,EQ.RATIO= 0.666667  PHI,EQ.RATIO= 0.500000

 THERMODYNAMIC PROPERTIES

 P, BAR            1.0000
 T, K             2883.05
 RHO, KG/CU M    1.5005-1
 H, KJ/KG        -1840.18
 U, KJ/KG        -2506.62
 G, KJ/KG        -26617.6
 S, KJ/(KG)(K)     8.5942

 M, (1/n)          35.968
 (dLV/dLP)t      -1.04094
 (dLV/dLT)p        1.9166
 Cp, KJ/(KG)(K)    6.0916
 GAMMAs            1.1092
 SON VEL,M/SEC      859.8

 MOLE FRACTIONS

 *C              1.345-12
 *CO             1.5736-1
 *CO2            4.4203-1
 C2O             4.715-14
 *O              4.4486-2
 *O2             3.5613-1
 O3              2.1743-7

  * THERMODYNAMIC PROPERTIES FITTED TO 20000.K









         THERMODYNAMIC EQUILIBRIUM COMBUSTION PROPERTIES AT ASSIGNED

                                   PRESSURES

 CASE =                

             REACTANT                       MOLES         ENERGY      TEMP
                                                         KJ/KG-MOL      K
 FUEL        CO                           1.0000000   -110481.283    300.000
 OXIDANT     O2                           0.5000000        54.358    300.000

 O/F=    0.95200  %FUEL= 51.229460  R,EQ.RATIO= 0.750000  PHI,EQ.RATIO= 0.600000

 THERMODYNAMIC PROPERTIES

 P, BAR            1.0000
 T, K             2921.64
 RHO, KG/CU M    1.4760-1
 H, KJ/KG        -2019.83
 U, KJ/KG        -2697.33
 G, KJ/KG        -27262.0
 S, KJ/(KG)(K)     8.6397

 M, (1/n)          35.856
 (dLV/dLP)t      -1.04743
 (dLV/dLT)p        2.0487
 Cp, KJ/(KG)(K)    6.7315
 GAMMAs            1.1076
 SON VEL,M/SEC      866.3

 MOLE FRACTIONS

 *C              3.035-12
 *CO             2.0441-1
 *CO2            4.5138-1
 C2O             1.168-13
 *O              4.6826-2
 *O2             2.9739-1
 O3              1.8192-7

  * THERMODYNAMIC PROPERTIES FITTED TO 20000.K









         THERMODYNAMIC EQUILIBRIUM COMBUSTION PROPERTIES AT ASSIGNED

                                   PRESSURES

 CASE =                

             REACTANT                       MOLES         ENERGY      TEMP
                                                         KJ/KG-MOL      K
 FUEL        CO                           1.0000000   -110481.283    300.000
 OXIDANT     O2                           0.5000000        54.358    300.000

 O/F=    0.81600  %FUEL= 55.066032  R,EQ.RATIO= 0.823529  PHI,EQ.RATIO= 0.700000

 THERMODYNAMIC PROPERTIES

 P, BAR            1.0000
 T, K             2946.03
 RHO, KG/CU M    1.4590-1
 H, KJ/KG        -2171.23
 U, KJ/KG        -2856.62
 G, KJ/KG        -27724.6
 S, KJ/(KG)(K)     8.6739

 M, (1/n)          35.738
 (dLV/dLP)t      -1.05164
 (dLV/dLT)p        2.1331
 Cp, KJ/(KG)(K)    7.1432
 GAMMAs            1.1069
 SON VEL,M/SEC      871.0

 MOLE FRACTIONS

 *C              5.315-12
 *CO             2.4681-1
 *CO2            4.5577-1
 C2O             2.226-13
 *O              4.6904-2
 *O2             2.5051-1
 O3              1.4893-7

  * THERMODYNAMIC PROPERTIES FITTED TO 20000.K









         THERMODYNAMIC EQUILIBRIUM COMBUSTION PROPERTIES AT ASSIGNED

                                   PRESSURES

 CASE =                

             REACTANT                       MOLES         ENERGY      TEMP
                                                         KJ/KG-MOL      K
 FUEL        CO                           1.0000000   -110481.283    300.000
 OXIDANT     O2                           0.5000000        54.358    300.000

 O/F=    0.71400  %FUEL= 58.343010  R,EQ.RATIO= 0.888889  PHI,EQ.RATIO= 0.800000

 THERMODYNAMIC PROPERTIES

 P, BAR            1.0000
 T, K             2961.44
 RHO, KG/CU M    1.4467-1
 H, KJ/KG        -2300.54
 U, KJ/KG        -2991.75
 G, KJ/KG        -28065.1
 S, KJ/(KG)(K)     8.7000

 M, (1/n)          35.623
 (dLV/dLP)t      -1.05412
 (dLV/dLT)p        2.1819
 Cp, KJ/(KG)(K)    7.3871
 GAMMAs            1.1066
 SON VEL,M/SEC      874.6

 MOLE FRACTIONS

 *C              7.963-12
 *CO             2.8489-1
 *CO2            4.5711-1
 C2O             3.608-13
 C3O2            1.214-16
 *O              4.5609-2
 *O2             2.1239-1
 O3              1.2051-7

  * THERMODYNAMIC PROPERTIES FITTED TO 20000.K









         THERMODYNAMIC EQUILIBRIUM COMBUSTION PROPERTIES AT ASSIGNED

                                   PRESSURES

 CASE =                

             REACTANT                       MOLES         ENERGY      TEMP
                                                         KJ/KG-MOL      K
 FUEL        CO                           1.0000000   -110481.283    300.000
 OXIDANT     O2                           0.5000000        54.358    300.000

 O/F=    0.63467  %FUEL= 61.174506  R,EQ.RATIO= 0.947368  PHI,EQ.RATIO= 0.900000

 THERMODYNAMIC PROPERTIES

 P, BAR            1.0000
 T, K             2970.73
 RHO, KG/CU M    1.4377-1
 H, KJ/KG        -2412.27
 U, KJ/KG        -3107.80
 G, KJ/KG        -28318.0
 S, KJ/(KG)(K)     8.7203

 M, (1/n)          35.513
 (dLV/dLP)t      -1.05527
 (dLV/dLT)p        2.2039
 Cp, KJ/(KG)(K)    7.5042
 GAMMAs            1.1065
 SON VEL,M/SEC      877.3

 MOLE FRACTIONS

 *C              1.075-11
 *CO             3.1913-1
 *CO2            4.5647-1
 C2O             5.250-13
 C3O2            1.916-16
 *O              4.3489-2
 *O2             1.8091-1
 O3              9.6791-8

  * THERMODYNAMIC PROPERTIES FITTED TO 20000.K









         THERMODYNAMIC EQUILIBRIUM COMBUSTION PROPERTIES AT ASSIGNED

                                   PRESSURES

 CASE =                

             REACTANT                       MOLES         ENERGY      TEMP
                                                         KJ/KG-MOL      K
 FUEL        CO                           1.0000000   -110481.283    300.000
 OXIDANT     O2                           0.5000000        54.358    300.000

 O/F=    0.57120  %FUEL= 63.645577  R,EQ.RATIO= 1.000000  PHI,EQ.RATIO= 1.000000

 THERMODYNAMIC PROPERTIES

 P, BAR            1.0000
 T, K             2975.59
 RHO, KG/CU M    1.4312-1
 H, KJ/KG        -2509.78
 U, KJ/KG        -3208.51
 G, KJ/KG        -28505.4
 S, KJ/(KG)(K)     8.7363

 M, (1/n)          35.408
 (dLV/dLP)t      -1.05539
 (dLV/dLT)p        2.2050
 Cp, KJ/(KG)(K)    7.5227
 GAMMAs            1.1067
 SON VEL,M/SEC      879.4

 MOLE FRACTIONS

 *C              1.349-11
 *CO             3.5002-1
 *CO2            4.5452-1
 C2O             7.078-13
 C3O2            2.786-16
 *O              4.0885-2
 *O2             1.5457-1
 O3              7.7300-8

  * THERMODYNAMIC PROPERTIES FITTED TO 20000.K









         THERMODYNAMIC EQUILIBRIUM COMBUSTION PROPERTIES AT ASSIGNED

                                   PRESSURES

 CASE =                

             REACTANT                       MOLES         ENERGY      TEMP
                                                         KJ/KG-MOL      K
 FUEL        CO                           1.0000000   -110481.283    300.000
 OXIDANT     O2                           0.5000000        54.358    300.000

 O/F=    0.51927  %FUEL= 65.820924  R,EQ.RATIO= 1.047619  PHI,EQ.RATIO= 1.100000

 THERMODYNAMIC PROPERTIES

 P, BAR            1.0000
 T, K             2977.05
 RHO, KG/CU M    1.4264-1
 H, KJ/KG        -2595.62
 U, KJ/KG        -3296.68
 G, KJ/KG        -28641.6
 S, KJ/(KG)(K)     8.7489

 M, (1/n)          35.308
 (dLV/dLP)t      -1.05468
 (dLV/dLT)p        2.1896
 Cp, KJ/(KG)(K)    7.4623
 GAMMAs            1.1070
 SON VEL,M/SEC      880.9

 MOLE FRACTIONS

 *C              1.601-11
 *CO             3.7802-1
 *CO2            4.5167-1
 C2O             9.020-13
 C3O2            3.814-16
 *O              3.8018-2
 *O2             1.3229-1
 O3              6.1411-8

  * THERMODYNAMIC PROPERTIES FITTED TO 20000.K









         THERMODYNAMIC EQUILIBRIUM COMBUSTION PROPERTIES AT ASSIGNED

                                   PRESSURES

 CASE =                

             REACTANT                       MOLES         ENERGY      TEMP
                                                         KJ/KG-MOL      K
 FUEL        CO                           1.0000000   -110481.283    300.000
 OXIDANT     O2                           0.5000000        54.358    300.000

 O/F=    0.47600  %FUEL= 67.750635  R,EQ.RATIO= 1.090909  PHI,EQ.RATIO= 1.200000

 THERMODYNAMIC PROPERTIES

 P, BAR            1.0000
 T, K             2975.81
 RHO, KG/CU M    1.4231-1
 H, KJ/KG        -2671.77
 U, KJ/KG        -3374.44
 G, KJ/KG        -28736.7
 S, KJ/(KG)(K)     8.7589

 M, (1/n)          35.212
 (dLV/dLP)t      -1.05332
 (dLV/dLT)p        2.1609
 Cp, KJ/(KG)(K)    7.3371
 GAMMAs            1.1074
 SON VEL,M/SEC      882.1

 MOLE FRACTIONS

 *C              1.821-11
 *CO             4.0352-1
 *CO2            4.4818-1
 C2O             1.101-12
 C3O2            4.990-16
 *O              3.5027-2
 *O2             1.1327-1
 O3              4.8517-8

  * THERMODYNAMIC PROPERTIES FITTED TO 20000.K









         THERMODYNAMIC EQUILIBRIUM COMBUSTION PROPERTIES AT ASSIGNED

                                   PRESSURES

 CASE =                

             REACTANT                       MOLES         ENERGY      TEMP
                                                         KJ/KG-MOL      K
 FUEL        CO                           1.0000000   -110481.283    300.000
 OXIDANT     O2                           0.5000000        54.358    300.000

 O/F=    0.43939  %FUEL= 69.474093  R,EQ.RATIO= 1.130435  PHI,EQ.RATIO= 1.300000

 THERMODYNAMIC PROPERTIES

 P, BAR            1.0000
 T, K             2972.32
 RHO, KG/CU M    1.4211-1
 H, KJ/KG        -2739.77
 U, KJ/KG        -3443.46
 G, KJ/KG        -28797.7
 S, KJ/(KG)(K)     8.7669

 M, (1/n)          35.120
 (dLV/dLP)t      -1.05141
 (dLV/dLT)p        2.1211
 Cp, KJ/(KG)(K)    7.1572
 GAMMAs            1.1079
 SON VEL,M/SEC      883.0

 MOLE FRACTIONS

 *C              2.001-11
 *CO             4.2684-1
 *CO2            4.4424-1
 C2O             1.298-12
 C3O2            6.301-16
 *O              3.2006-2
 *O2             9.6909-2
 O3              3.8087-8

  * THERMODYNAMIC PROPERTIES FITTED TO 20000.K









         THERMODYNAMIC EQUILIBRIUM COMBUSTION PROPERTIES AT ASSIGNED

                                   PRESSURES

 CASE =                

             REACTANT                       MOLES         ENERGY      TEMP
                                                         KJ/KG-MOL      K
 FUEL        CO                           1.0000000   -110481.283    300.000
 OXIDANT     O2                           0.5000000        54.358    300.000

 O/F=    0.40800  %FUEL= 71.022688  R,EQ.RATIO= 1.166667  PHI,EQ.RATIO= 1.400000

 THERMODYNAMIC PROPERTIES

 P, BAR            1.0000
 T, K             2966.86
 RHO, KG/CU M    1.4201-1
 H, KJ/KG        -2800.88
 U, KJ/KG        -3505.06
 G, KJ/KG        -28829.5
 S, KJ/(KG)(K)     8.7731

 M, (1/n)          35.031
 (dLV/dLP)t      -1.04905
 (dLV/dLT)p        2.0720
 Cp, KJ/(KG)(K)    6.9305
 GAMMAs            1.1086
 SON VEL,M/SEC      883.6

 MOLE FRACTIONS

 *C              2.136-11
 *CO             4.4829-1
 *CO2            4.3996-1
 C2O             1.489-12
 C3O2            7.737-16
 *O              2.9015-2
 *O2             8.2744-2
 O3              2.9673-8

  * THERMODYNAMIC PROPERTIES FITTED TO 20000.K









         THERMODYNAMIC EQUILIBRIUM COMBUSTION PROPERTIES AT ASSIGNED

                                   PRESSURES

 CASE =                

             REACTANT                       MOLES         ENERGY      TEMP
                                                         KJ/KG-MOL      K
 FUEL        CO                           1.0000000   -110481.283    300.000
 OXIDANT     O2                           0.5000000        54.358    300.000

 O/F=    0.38080  %FUEL= 72.421746  R,EQ.RATIO= 1.200000  PHI,EQ.RATIO= 1.500000

 THERMODYNAMIC PROPERTIES

 P, BAR            1.0000
 T, K             2959.63
 RHO, KG/CU M    1.4200-1
 H, KJ/KG        -2856.09
 U, KJ/KG        -3560.30
 G, KJ/KG        -28835.7
 S, KJ/(KG)(K)     8.7780

 M, (1/n)          34.944
 (dLV/dLP)t      -1.04631
 (dLV/dLT)p        2.0150
 Cp, KJ/(KG)(K)    6.6626
 GAMMAs            1.1095
 SON VEL,M/SEC      883.9

 MOLE FRACTIONS

 *C              2.225-11
 *CO             4.6809-1
 *CO2            4.3540-1
 C2O             1.669-12
 C3O2            9.288-16
 *O              2.6094-2
 *O2             7.0416-2
 O3              2.2908-8

  * THERMODYNAMIC PROPERTIES FITTED TO 20000.K









         THERMODYNAMIC EQUILIBRIUM COMBUSTION PROPERTIES AT ASSIGNED

                                   PRESSURES

 CASE =                

             REACTANT                       MOLES         ENERGY      TEMP
                                                         KJ/KG-MOL      K
 FUEL        CO                           1.0000000   -110481.283    300.000
 OXIDANT     O2                           0.5000000        54.358    300.000

 O/F=    0.35700  %FUEL= 73.691930  R,EQ.RATIO= 1.230769  PHI,EQ.RATIO= 1.600000

 THERMODYNAMIC PROPERTIES

 P, BAR            1.0000
 T, K             2950.72
 RHO, KG/CU M    1.4208-1
 H, KJ/KG        -2906.21
 U, KJ/KG        -3610.03
 G, KJ/KG        -28818.7
 S, KJ/(KG)(K)     8.7817

 M, (1/n)          34.858
 (dLV/dLP)t      -1.04326
 (dLV/dLT)p        1.9511
 Cp, KJ/(KG)(K)    6.3584
 GAMMAs            1.1106
 SON VEL,M/SEC      884.1

 MOLE FRACTIONS

 *C              2.267-11
 *CO             4.8646-1
 *CO2            4.3062-1
 C2O             1.835-12
 C3O2            1.095-15
 *O              2.3271-2
 *O2             5.9643-2
 O3              1.7492-8

  * THERMODYNAMIC PROPERTIES FITTED TO 20000.K









         THERMODYNAMIC EQUILIBRIUM COMBUSTION PROPERTIES AT ASSIGNED

                                   PRESSURES

 CASE =                

             REACTANT                       MOLES         ENERGY      TEMP
                                                         KJ/KG-MOL      K
 FUEL        CO                           1.0000000   -110481.283    300.000
 OXIDANT     O2                           0.5000000        54.358    300.000

 O/F=    0.33600  %FUEL= 74.850263  R,EQ.RATIO= 1.259259  PHI,EQ.RATIO= 1.700000

 THERMODYNAMIC PROPERTIES

 P, BAR            1.0000
 T, K             2940.18
 RHO, KG/CU M    1.4224-1
 H, KJ/KG        -2951.92
 U, KJ/KG        -3654.93
 G, KJ/KG        -28779.9
 S, KJ/(KG)(K)     8.7845

 M, (1/n)          34.773
 (dLV/dLP)t      -1.03993
 (dLV/dLT)p        1.8814
 Cp, KJ/(KG)(K)    6.0219
 GAMMAs            1.1119
 SON VEL,M/SEC      884.1

 MOLE FRACTIONS

 *C              2.263-11
 *CO             5.0359-1
 *CO2            4.2564-1
 C2O             1.982-12
 C3O2            1.271-15
 *O              2.0564-2
 *O2             5.0202-2
 O3              1.3179-8

  * THERMODYNAMIC PROPERTIES FITTED TO 20000.K









         THERMODYNAMIC EQUILIBRIUM COMBUSTION PROPERTIES AT ASSIGNED

                                   PRESSURES

 CASE =                

             REACTANT                       MOLES         ENERGY      TEMP
                                                         KJ/KG-MOL      K
 FUEL        CO                           1.0000000   -110481.283    300.000
 OXIDANT     O2                           0.5000000        54.358    300.000

 O/F=    0.31733  %FUEL= 75.910896  R,EQ.RATIO= 1.285714  PHI,EQ.RATIO= 1.800000

 THERMODYNAMIC PROPERTIES

 P, BAR            1.0000
 T, K             2927.96
 RHO, KG/CU M    1.4249-1
 H, KJ/KG        -2993.77
 U, KJ/KG        -3695.58
 G, KJ/KG        -28720.1
 S, KJ/(KG)(K)     8.7864

 M, (1/n)          34.688
 (dLV/dLP)t      -1.03638
 (dLV/dLT)p        1.8067
 Cp, KJ/(KG)(K)    5.6569
 GAMMAs            1.1135
 SON VEL,M/SEC      884.0

 MOLE FRACTIONS

 *C              2.214-11
 *CO             5.1964-1
 *CO2            4.2046-1
 C2O             2.109-12
 C3O2            1.457-15
 *O              1.7985-2
 *O2             4.1915-2
 O3              9.7706-9

  * THERMODYNAMIC PROPERTIES FITTED TO 20000.K









         THERMODYNAMIC EQUILIBRIUM COMBUSTION PROPERTIES AT ASSIGNED

                                   PRESSURES

 CASE =                

             REACTANT                       MOLES         ENERGY      TEMP
                                                         KJ/KG-MOL      K
 FUEL        CO                           1.0000000   -110481.283    300.000
 OXIDANT     O2                           0.5000000        54.358    300.000

 O/F=    0.30063  %FUEL= 76.885689  R,EQ.RATIO= 1.310345  PHI,EQ.RATIO= 1.900000

 THERMODYNAMIC PROPERTIES

 P, BAR            1.0000
 T, K             2913.99
 RHO, KG/CU M    1.4282-1
 H, KJ/KG        -3032.24
 U, KJ/KG        -3732.43
 G, KJ/KG        -28639.4
 S, KJ/(KG)(K)     8.7877

 M, (1/n)          34.603
 (dLV/dLP)t      -1.03266
 (dLV/dLT)p        1.7280
 Cp, KJ/(KG)(K)    5.2674
 GAMMAs            1.1155
 SON VEL,M/SEC      883.8

 MOLE FRACTIONS

 *C              2.125-11
 *CO             5.3474-1
 *CO2            4.1508-1
 C2O             2.211-12
 C3O2            1.653-15
 *O              1.5544-2
 *O2             3.4640-2
 O3              7.1022-9

  * THERMODYNAMIC PROPERTIES FITTED TO 20000.K









         THERMODYNAMIC EQUILIBRIUM COMBUSTION PROPERTIES AT ASSIGNED

                                   PRESSURES

 CASE =                

             REACTANT                       MOLES         ENERGY      TEMP
                                                         KJ/KG-MOL      K
 FUEL        CO                           1.0000000   -110481.283    300.000
 OXIDANT     O2                           0.5000000        54.358    300.000

 O/F=    0.28560  %FUEL= 77.784659  R,EQ.RATIO= 1.333333  PHI,EQ.RATIO= 2.000000

 THERMODYNAMIC PROPERTIES

 P, BAR            1.0000
 T, K             2898.12
 RHO, KG/CU M    1.4324-1
 H, KJ/KG        -3067.71
 U, KJ/KG        -3765.86
 G, KJ/KG        -28537.1
 S, KJ/(KG)(K)     8.7882

 M, (1/n)          34.515
 (dLV/dLP)t      -1.02883
 (dLV/dLT)p        1.6462
 Cp, KJ/(KG)(K)    4.8578
 GAMMAs            1.1180
 SON VEL,M/SEC      883.5

 MOLE FRACTIONS

 *C              1.998-11
 *CO             5.4902-1
 *CO2            4.0947-1
 C2O             2.287-12
 C3O2            1.860-15
 *O              1.3249-2
 *O2             2.8263-2
 O3              5.0402-9

  * THERMODYNAMIC PROPERTIES FITTED TO 20000.K



