
 *******************************************************************************

         NASA-GLENN CHEMICAL EQUILIBRIUM PROGRAM CEA2, MAY 21, 2004
                   BY  BONNIE MCBRIDE AND SANFORD GORDON
      REFS: NASA RP-1311, PART I, 1994 AND NASA RP-1311, PART II, 1996

 *******************************************************************************



 problem    phi,eq.ratio=3.7,3.8,3.9,4,
       hp   p,bar=1,  t,k=3800
 react
   fuel=CO moles=1 t,k=300
   oxid=O2 moles=0.5 t,k=300
 output
      trace=1e-16 siunits short
 end




         THERMODYNAMIC EQUILIBRIUM COMBUSTION PROPERTIES AT ASSIGNED

                                   PRESSURES

 CASE =                

             REACTANT                       MOLES         ENERGY      TEMP
                                                         KJ/KG-MOL      K
 FUEL        CO                           1.0000000   -110481.283    300.000
 OXIDANT     O2                           0.5000000        54.358    300.000

 O/F=    0.15438  %FUEL= 86.626687  R,EQ.RATIO= 1.574468  PHI,EQ.RATIO= 3.700000

 THERMODYNAMIC PROPERTIES

 P, BAR            1.0000
 T, K             2242.44
 RHO, KG/CU M    1.7342-1
 H, KJ/KG        -3416.62
 U, KJ/KG        -3993.26
 G, KJ/KG        -22984.6
 S, KJ/(KG)(K)     8.7262

 M, (1/n)          32.334
 (dLV/dLP)t      -1.00002
 (dLV/dLT)p        1.0006
 Cp, KJ/(KG)(K)    1.3387
 GAMMAs            1.2381
 SON VEL,M/SEC      844.9

 MOLE FRACTIONS

 *C              5.807-14
 *CO             7.2974-1
 *CO2            2.7024-1
 C2O             3.700-13
 C3O2            9.183-15
 *O              1.0440-5
 *O2             8.7902-6
 O3              4.078-15

  * THERMODYNAMIC PROPERTIES FITTED TO 20000.K









         THERMODYNAMIC EQUILIBRIUM COMBUSTION PROPERTIES AT ASSIGNED

                                   PRESSURES

 CASE =                

             REACTANT                       MOLES         ENERGY      TEMP
                                                         KJ/KG-MOL      K
 FUEL        CO                           1.0000000   -110481.283    300.000
 OXIDANT     O2                           0.5000000        54.358    300.000

 O/F=    0.15032  %FUEL= 86.932628  R,EQ.RATIO= 1.583333  PHI,EQ.RATIO= 3.800000

 THERMODYNAMIC PROPERTIES

 P, BAR            1.0000
 T, K             2202.40
 RHO, KG/CU M    1.7595-1
 H, KJ/KG        -3428.69
 U, KJ/KG        -3997.03
 G, KJ/KG        -22632.1
 S, KJ/(KG)(K)     8.7193

 M, (1/n)          32.220
 (dLV/dLP)t      -1.00001
 (dLV/dLT)p        1.0003
 Cp, KJ/(KG)(K)    1.3345
 GAMMAs            1.2399
 SON VEL,M/SEC      839.5

 MOLE FRACTIONS

 *C              3.524-14
 *CO             7.3685-1
 *CO2            2.6314-1
 C2O             3.066-13
 C3O2            9.909-15
 *O              5.9907-6
 *O2             4.7655-6
 O3              1.405-15

  * THERMODYNAMIC PROPERTIES FITTED TO 20000.K









         THERMODYNAMIC EQUILIBRIUM COMBUSTION PROPERTIES AT ASSIGNED

                                   PRESSURES

 CASE =                

             REACTANT                       MOLES         ENERGY      TEMP
                                                         KJ/KG-MOL      K
 FUEL        CO                           1.0000000   -110481.283    300.000
 OXIDANT     O2                           0.5000000        54.358    300.000

 O/F=    0.14646  %FUEL= 87.224885  R,EQ.RATIO= 1.591837  PHI,EQ.RATIO= 3.900000

 THERMODYNAMIC PROPERTIES

 P, BAR            1.0000
 T, K             2164.02
 RHO, KG/CU M    1.7847-1
 H, KJ/KG        -3440.23
 U, KJ/KG        -4000.54
 G, KJ/KG        -22293.7
 S, KJ/(KG)(K)     8.7122

 M, (1/n)          32.112
 (dLV/dLP)t      -1.00001
 (dLV/dLT)p        1.0002
 Cp, KJ/(KG)(K)    1.3310
 GAMMAs            1.2416
 SON VEL,M/SEC      834.1

 MOLE FRACTIONS

 *C              2.143-14
 *CO             7.4359-1
 *CO2            2.5640-1
 C2O             2.540-13
 C3O2            1.067-14
 *O              3.4534-6
 *O2             2.5984-6
 O3              4.889-16

  * THERMODYNAMIC PROPERTIES FITTED TO 20000.K









         THERMODYNAMIC EQUILIBRIUM COMBUSTION PROPERTIES AT ASSIGNED

                                   PRESSURES

 CASE =                

             REACTANT                       MOLES         ENERGY      TEMP
                                                         KJ/KG-MOL      K
 FUEL        CO                           1.0000000   -110481.283    300.000
 OXIDANT     O2                           0.5000000        54.358    300.000

 O/F=    0.14280  %FUEL= 87.504354  R,EQ.RATIO= 1.600000  PHI,EQ.RATIO= 4.000000

 THERMODYNAMIC PROPERTIES

 P, BAR            1.0000
 T, K             2127.22
 RHO, KG/CU M    1.8098-1
 H, KJ/KG        -3451.25
 U, KJ/KG        -4003.80
 G, KJ/KG        -21968.7
 S, KJ/(KG)(K)     8.7050

 M, (1/n)          32.010
 (dLV/dLP)t      -1.00000
 (dLV/dLT)p        1.0001
 Cp, KJ/(KG)(K)    1.3280
 GAMMAs            1.2432
 SON VEL,M/SEC      828.8

 MOLE FRACTIONS

 *C              1.306-14
 *CO             7.5000-1
 *CO2            2.4999-1
 C2O             2.104-13
 C3O2            1.146-14
 *O              2.0001-6
 *O2             1.4249-6
 O3              1.719-16

  * THERMODYNAMIC PROPERTIES FITTED TO 20000.K



