
 *******************************************************************************

         NASA-GLENN CHEMICAL EQUILIBRIUM PROGRAM CEA2, MAY 21, 2004
                   BY  BONNIE MCBRIDE AND SANFORD GORDON
      REFS: NASA RP-1311, PART I, 1994 AND NASA RP-1311, PART II, 1996

 *******************************************************************************



 problem    phi,eq.ratio=2.1,2.2,2.3,2.4,2.5,2.6,2.7,2.8,2.9,3,3.1,3.2,3.3,3.4,3.
 5,3.6,
       hp   p,bar=1,  t,k=3800
 react
   fuel=H2 moles=1 t,k=300
   oxid=O2 moles=0.5 t,k=300
   oxid=N2 moles=1.8810 t,k=300
 output
      trace=1e-16 siunits short
 end




         THERMODYNAMIC EQUILIBRIUM COMBUSTION PROPERTIES AT ASSIGNED

                                   PRESSURES

 CASE =                

             REACTANT                       MOLES         ENERGY      TEMP
                                                         KJ/KG-MOL      K
 FUEL        H2                           1.0000000        53.359    300.000
 OXIDANT     O2                           0.5000000        54.358    300.000
 OXIDANT     N2                           1.8810000        53.881    300.000

 O/F=   16.22654  %FUEL=  5.804995  R,EQ.RATIO= 2.100000  PHI,EQ.RATIO= 2.100000

 THERMODYNAMIC PROPERTIES

 P, BAR            1.0000
 T, K             2026.26
 RHO, KG/CU M    1.0867-1
 H, KJ/KG          3.2991
 U, KJ/KG         -916.91
 G, KJ/KG        -27335.1
 S, KJ/(KG)(K)    13.4920

 M, (1/n)          18.308
 (dLV/dLP)t      -1.00029
 (dLV/dLT)p        1.0079
 Cp, KJ/(KG)(K)    2.2593
 GAMMAs            1.2561
 SON VEL,M/SEC     1075.1

 MOLE FRACTIONS

 *H              1.0208-3
 HNO             8.161-10
 HNO2            3.894-12
 HO2             9.498-11
 *H2             2.7570-1
 H2O             2.5094-1
 H2O2            1.634-10
 *N              9.006-10
 *NH             2.5001-9
 NH2             2.5497-8
 NH3             1.9290-6
 NH2OH           9.232-13
 *NO             4.4329-6
 NO2             5.141-12
 *N2             4.7222-1
 N2H2            4.547-13
 N2H4            1.013-16
 N2O             1.932-10
 N3              8.833-16
 N3H             3.673-15
 *O              2.6031-7
 *OH             1.0976-4
 *O2             1.0176-7

  * THERMODYNAMIC PROPERTIES FITTED TO 20000.K









         THERMODYNAMIC EQUILIBRIUM COMBUSTION PROPERTIES AT ASSIGNED

                                   PRESSURES

 CASE =                

             REACTANT                       MOLES         ENERGY      TEMP
                                                         KJ/KG-MOL      K
 FUEL        H2                           1.0000000        53.359    300.000
 OXIDANT     O2                           0.5000000        54.358    300.000
 OXIDANT     N2                           1.8810000        53.881    300.000

 O/F=   15.48897  %FUEL=  6.064659  R,EQ.RATIO= 2.200000  PHI,EQ.RATIO= 2.200000

 THERMODYNAMIC PROPERTIES

 P, BAR            1.0000
 T, K             1993.87
 RHO, KG/CU M    1.0804-1
 H, KJ/KG          3.3629
 U, KJ/KG         -922.23
 G, KJ/KG        -27294.3
 S, KJ/(KG)(K)    13.6908

 M, (1/n)          17.911
 (dLV/dLP)t      -1.00023
 (dLV/dLT)p        1.0065
 Cp, KJ/(KG)(K)    2.2795
 GAMMAs            1.2596
 SON VEL,M/SEC     1079.7

 MOLE FRACTIONS

 *H              8.4625-4
 HNO             5.423-10
 HNO2            2.207-12
 HO2             5.031-11
 *H2             2.9353-1
 H2O             2.4484-1
 H2O2            1.031-10
 *N              5.599-10
 *NH             1.8057-9
 NH2             2.2450-8
 NH3             2.2081-6
 NH2OH           7.554-13
 *NO             2.8831-6
 NO2             2.537-12
 *N2             4.6070-1
 N2H2            3.845-13
 N2H4            1.027-16
 N2O             1.244-10
 N3              5.554-16
 N3H             2.739-15
 *O              1.4636-7
 *OH             7.8747-5
 *O2             5.2639-8

  * THERMODYNAMIC PROPERTIES FITTED TO 20000.K









         THERMODYNAMIC EQUILIBRIUM COMBUSTION PROPERTIES AT ASSIGNED

                                   PRESSURES

 CASE =                

             REACTANT                       MOLES         ENERGY      TEMP
                                                         KJ/KG-MOL      K
 FUEL        H2                           1.0000000        53.359    300.000
 OXIDANT     O2                           0.5000000        54.358    300.000
 OXIDANT     N2                           1.8810000        53.881    300.000

 O/F=   14.81554  %FUEL=  6.322895  R,EQ.RATIO= 2.300000  PHI,EQ.RATIO= 2.300000

 THERMODYNAMIC PROPERTIES

 P, BAR            1.0000
 T, K             1962.57
 RHO, KG/CU M    1.0744-1
 H, KJ/KG          3.4264
 U, KJ/KG         -927.31
 G, KJ/KG        -27251.1
 S, KJ/(KG)(K)    13.8872

 M, (1/n)          17.532
 (dLV/dLP)t      -1.00019
 (dLV/dLT)p        1.0054
 Cp, KJ/(KG)(K)    2.3013
 GAMMAs            1.2628
 SON VEL,M/SEC     1084.1

 MOLE FRACTIONS

 *H              6.9971-4
 HNO             3.623-10
 HNO2            1.266-12
 HO2             2.697-11
 *H2             3.1049-1
 H2O             2.3903-1
 H2O2            6.559-11
 *N              3.486-10
 *NH             1.3013-9
 NH2             1.9654-8
 NH3             2.5038-6
 NH2OH           6.172-13
 *NO             1.8904-6
 NO2             1.272-12
 *N2             4.4972-1
 N2H2            3.234-13
 N2H4            1.028-16
 N2O             8.082-11
 N3              3.499-16
 N3H             2.040-15
 *O              8.2969-8
 *OH             5.6748-5
 *O2             2.7645-8

  * THERMODYNAMIC PROPERTIES FITTED TO 20000.K









         THERMODYNAMIC EQUILIBRIUM COMBUSTION PROPERTIES AT ASSIGNED

                                   PRESSURES

 CASE =                

             REACTANT                       MOLES         ENERGY      TEMP
                                                         KJ/KG-MOL      K
 FUEL        H2                           1.0000000        53.359    300.000
 OXIDANT     O2                           0.5000000        54.358    300.000
 OXIDANT     N2                           1.8810000        53.881    300.000

 O/F=   14.19823  %FUEL=  6.579715  R,EQ.RATIO= 2.400000  PHI,EQ.RATIO= 2.400000

 THERMODYNAMIC PROPERTIES

 P, BAR            1.0000
 T, K             1932.31
 RHO, KG/CU M    1.0687-1
 H, KJ/KG          3.4896
 U, KJ/KG         -932.18
 G, KJ/KG        -27206.1
 S, KJ/(KG)(K)    14.0814

 M, (1/n)          17.171
 (dLV/dLP)t      -1.00016
 (dLV/dLT)p        1.0045
 Cp, KJ/(KG)(K)    2.3245
 GAMMAs            1.2658
 SON VEL,M/SEC     1088.3

 MOLE FRACTIONS

 *H              5.7739-4
 HNO             2.431-10
 HNO2            7.345-13
 HO2             1.461-11
 *H2             3.2665-1
 H2O             2.3348-1
 H2O2            4.206-11
 *N              2.174-10
 *NH             9.365-10
 NH2             1.7128-8
 NH3             2.8167-6
 NH2OH           5.038-13
 *NO             1.2484-6
 NO2             6.466-13
 *N2             4.3925-1
 N2H2            2.710-13
 N2H4            1.019-16
 N2O             5.289-11
 N3              2.210-16
 N3H             1.518-15
 *O              4.7384-8
 *OH             4.1060-5
 *O2             1.4714-8

  * THERMODYNAMIC PROPERTIES FITTED TO 20000.K









         THERMODYNAMIC EQUILIBRIUM COMBUSTION PROPERTIES AT ASSIGNED

                                   PRESSURES

 CASE =                

             REACTANT                       MOLES         ENERGY      TEMP
                                                         KJ/KG-MOL      K
 FUEL        H2                           1.0000000        53.359    300.000
 OXIDANT     O2                           0.5000000        54.358    300.000
 OXIDANT     N2                           1.8810000        53.881    300.000

 O/F=   13.63030  %FUEL=  6.835131  R,EQ.RATIO= 2.500000  PHI,EQ.RATIO= 2.500000

 THERMODYNAMIC PROPERTIES

 P, BAR            1.0000
 T, K             1903.07
 RHO, KG/CU M    1.0634-1
 H, KJ/KG          3.5525
 U, KJ/KG         -936.85
 G, KJ/KG        -27159.7
 S, KJ/(KG)(K)    14.2734

 M, (1/n)          16.826
 (dLV/dLP)t      -1.00013
 (dLV/dLT)p        1.0037
 Cp, KJ/(KG)(K)    2.3488
 GAMMAs            1.2687
 SON VEL,M/SEC     1092.3

 MOLE FRACTIONS

 *H              4.7574-4
 HNO             1.639-10
 HNO2            4.302-13
 HO2             7.992-12
 *H2             3.4208-1
 H2O             2.2817-1
 H2O2            2.715-11
 *N              1.358-10
 *NH             6.733-10
 NH2             1.4870-8
 NH3             3.1473-6
 NH2OH           4.109-13
 *NO             8.2985-7
 NO2             3.328-13
 *N2             4.2924-1
 N2H2            2.264-13
 N2H4            1.002-16
 N2O             3.486-11
 N3              1.398-16
 N3H             1.129-15
 *O              2.7246-8
 *OH             2.9819-5
 *O2             7.9249-9

  * THERMODYNAMIC PROPERTIES FITTED TO 20000.K









         THERMODYNAMIC EQUILIBRIUM COMBUSTION PROPERTIES AT ASSIGNED

                                   PRESSURES

 CASE =                

             REACTANT                       MOLES         ENERGY      TEMP
                                                         KJ/KG-MOL      K
 FUEL        H2                           1.0000000        53.359    300.000
 OXIDANT     O2                           0.5000000        54.358    300.000
 OXIDANT     N2                           1.8810000        53.881    300.000

 O/F=   13.10605  %FUEL=  7.089155  R,EQ.RATIO= 2.600000  PHI,EQ.RATIO= 2.600000

 THERMODYNAMIC PROPERTIES

 P, BAR            1.0000
 T, K             1874.80
 RHO, KG/CU M    1.0583-1
 H, KJ/KG          3.6149
 U, KJ/KG         -941.34
 G, KJ/KG        -27112.3
 S, KJ/(KG)(K)    14.4634

 M, (1/n)          16.496
 (dLV/dLP)t      -1.00011
 (dLV/dLT)p        1.0031
 Cp, KJ/(KG)(K)    2.3741
 GAMMAs            1.2715
 SON VEL,M/SEC     1096.1

 MOLE FRACTIONS

 *H              3.9154-4
 HNO             1.109-10
 HNO2            2.543-13
 HO2             4.411-12
 *H2             3.5680-1
 H2O             2.2310-1
 H2O2            1.764-11
 *N              8.503-11
 *NH             4.838-10
 NH2             1.2870-8
 NH3             3.4962-6
 NH2OH           3.352-13
 *NO             5.5489-7
 NO2             1.732-13
 *N2             4.1968-1
 N2H2            1.887-13
 N2O             2.312-11
 N3H             8.395-16
 *O              1.5765-8
 *OH             2.1731-5
 *O2             4.3146-9

  * THERMODYNAMIC PROPERTIES FITTED TO 20000.K









         THERMODYNAMIC EQUILIBRIUM COMBUSTION PROPERTIES AT ASSIGNED

                                   PRESSURES

 CASE =                

             REACTANT                       MOLES         ENERGY      TEMP
                                                         KJ/KG-MOL      K
 FUEL        H2                           1.0000000        53.359    300.000
 OXIDANT     O2                           0.5000000        54.358    300.000
 OXIDANT     N2                           1.8810000        53.881    300.000

 O/F=   12.62064  %FUEL=  7.341796  R,EQ.RATIO= 2.700000  PHI,EQ.RATIO= 2.700000

 THERMODYNAMIC PROPERTIES

 P, BAR            1.0000
 T, K             1847.46
 RHO, KG/CU M    1.0534-1
 H, KJ/KG          3.6772
 U, KJ/KG         -945.65
 G, KJ/KG        -27064.0
 S, KJ/(KG)(K)    14.6513

 M, (1/n)          16.181
 (dLV/dLP)t      -1.00009
 (dLV/dLT)p        1.0025
 Cp, KJ/(KG)(K)    2.4000
 GAMMAs            1.2741
 SON VEL,M/SEC     1099.8

 MOLE FRACTIONS

 *H              3.2199-4
 HNO             7.539-11
 HNO2            1.515-13
 HO2             2.454-12
 *H2             3.7088-1
 H2O             2.1824-1
 H2O2            1.153-11
 *N              5.334-11
 *NH             3.476-10
 NH2             1.1111-8
 NH3             3.8641-6
 NH2OH           2.734-13
 *NO             3.7308-7
 NO2             9.105-14
 *N2             4.1054-1
 N2H2            1.570-13
 N2O             1.542-11
 N3H             6.245-16
 *O              9.1762-9
 *OH             1.5888-5
 *O2             2.3722-9

  * THERMODYNAMIC PROPERTIES FITTED TO 20000.K









         THERMODYNAMIC EQUILIBRIUM COMBUSTION PROPERTIES AT ASSIGNED

                                   PRESSURES

 CASE =                

             REACTANT                       MOLES         ENERGY      TEMP
                                                         KJ/KG-MOL      K
 FUEL        H2                           1.0000000        53.359    300.000
 OXIDANT     O2                           0.5000000        54.358    300.000
 OXIDANT     N2                           1.8810000        53.881    300.000

 O/F=   12.16991  %FUEL=  7.593068  R,EQ.RATIO= 2.800000  PHI,EQ.RATIO= 2.800000

 THERMODYNAMIC PROPERTIES

 P, BAR            1.0000
 T, K             1821.01
 RHO, KG/CU M    1.0487-1
 H, KJ/KG          3.7391
 U, KJ/KG         -949.80
 G, KJ/KG        -27015.2
 S, KJ/(KG)(K)    14.8373

 M, (1/n)          15.878
 (dLV/dLP)t      -1.00007
 (dLV/dLT)p        1.0021
 Cp, KJ/(KG)(K)    2.4266
 GAMMAs            1.2765
 SON VEL,M/SEC     1103.3

 MOLE FRACTIONS

 *H              2.6466-4
 HNO             5.143-11
 HNO2            9.095-14
 HO2             1.376-12
 *H2             3.8435-1
 H2O             2.1359-1
 H2O2            7.578-12
 *N              3.353-11
 *NH             2.498-10
 NH2             9.5727-9
 NH3             4.2517-6
 NH2OH           2.230-13
 *NO             2.5212-7
 NO2             4.833-14
 *N2             4.0178-1
 N2H2            1.304-13
 N2O             1.035-11
 N3H             4.648-16
 *O              5.3707-9
 *OH             1.1653-5
 *O2             1.3160-9

  * THERMODYNAMIC PROPERTIES FITTED TO 20000.K









         THERMODYNAMIC EQUILIBRIUM COMBUSTION PROPERTIES AT ASSIGNED

                                   PRESSURES

 CASE =                

             REACTANT                       MOLES         ENERGY      TEMP
                                                         KJ/KG-MOL      K
 FUEL        H2                           1.0000000        53.359    300.000
 OXIDANT     O2                           0.5000000        54.358    300.000
 OXIDANT     N2                           1.8810000        53.881    300.000

 O/F=   11.75026  %FUEL=  7.842980  R,EQ.RATIO= 2.900000  PHI,EQ.RATIO= 2.900000

 THERMODYNAMIC PROPERTIES

 P, BAR            1.0000
 T, K             1795.42
 RHO, KG/CU M    1.0443-1
 H, KJ/KG          3.8005
 U, KJ/KG         -953.81
 G, KJ/KG        -26966.0
 S, KJ/(KG)(K)    15.0214

 M, (1/n)          15.589
 (dLV/dLP)t      -1.00006
 (dLV/dLT)p        1.0017
 Cp, KJ/(KG)(K)    2.4536
 GAMMAs            1.2789
 SON VEL,M/SEC     1106.7

 MOLE FRACTIONS

 *H              2.1746-4
 HNO             3.521-11
 HNO2            5.499-14
 HO2             7.767-13
 *H2             3.9725-1
 H2O             2.0913-1
 H2O2            5.006-12
 *N              2.113-11
 *NH             1.795-10
 NH2             8.2339-9
 NH3             4.6598-6
 NH2OH           1.821-13
 *NO             1.7119-7
 NO2             2.588-14
 *N2             3.9339-1
 N2H2            1.083-13
 N2O             6.977-12
 N3H             3.462-16
 *O              3.1600-9
 *OH             8.5716-6
 *O2             7.362-10

  * THERMODYNAMIC PROPERTIES FITTED TO 20000.K









         THERMODYNAMIC EQUILIBRIUM COMBUSTION PROPERTIES AT ASSIGNED

                                   PRESSURES

 CASE =                

             REACTANT                       MOLES         ENERGY      TEMP
                                                         KJ/KG-MOL      K
 FUEL        H2                           1.0000000        53.359    300.000
 OXIDANT     O2                           0.5000000        54.358    300.000
 OXIDANT     N2                           1.8810000        53.881    300.000

 O/F=   11.35858  %FUEL=  8.091544  R,EQ.RATIO= 3.000000  PHI,EQ.RATIO= 3.000000

 THERMODYNAMIC PROPERTIES

 P, BAR            1.0000
 T, K             1770.65
 RHO, KG/CU M    1.0400-1
 H, KJ/KG          3.8616
 U, KJ/KG         -957.66
 G, KJ/KG        -26916.6
 S, KJ/(KG)(K)    15.2037

 M, (1/n)          15.311
 (dLV/dLP)t      -1.00005
 (dLV/dLT)p        1.0015
 Cp, KJ/(KG)(K)    2.4810
 GAMMAs            1.2812
 SON VEL,M/SEC     1109.9

 MOLE FRACTIONS

 *H              1.7866-4
 HNO             2.419-11
 HNO2            3.347-14
 HO2             4.414-13
 *H2             4.0962-1
 H2O             2.0485-1
 H2O2            3.323-12
 *N              1.334-11
 *NH             1.291-10
 NH2             7.0728-9
 NH3             5.0891-6
 NH2OH           1.487-13
 *NO             1.1676-7
 NO2             1.397-14
 *N2             3.8534-1
 N2H2            8.978-14
 N2O             4.727-12
 N3H             2.581-16
 *O              1.8686-9
 *OH             6.3230-6
 *O2             4.151-10

  * THERMODYNAMIC PROPERTIES FITTED TO 20000.K









         THERMODYNAMIC EQUILIBRIUM COMBUSTION PROPERTIES AT ASSIGNED

                                   PRESSURES

 CASE =                

             REACTANT                       MOLES         ENERGY      TEMP
                                                         KJ/KG-MOL      K
 FUEL        H2                           1.0000000        53.359    300.000
 OXIDANT     O2                           0.5000000        54.358    300.000
 OXIDANT     N2                           1.8810000        53.881    300.000

 O/F=   10.99217  %FUEL=  8.338771  R,EQ.RATIO= 3.100000  PHI,EQ.RATIO= 3.100000

 THERMODYNAMIC PROPERTIES

 P, BAR            1.0000
 T, K             1746.66
 RHO, KG/CU M    1.0359-1
 H, KJ/KG          3.9224
 U, KJ/KG         -961.39
 G, KJ/KG        -26867.1
 S, KJ/(KG)(K)    15.3842

 M, (1/n)          15.044
 (dLV/dLP)t      -1.00004
 (dLV/dLT)p        1.0012
 Cp, KJ/(KG)(K)    2.5087
 GAMMAs            1.2833
 SON VEL,M/SEC     1113.0

 MOLE FRACTIONS

 *H              1.4679-4
 HNO             1.668-11
 HNO2            2.050-14
 HO2             2.524-13
 *H2             4.2149-1
 H2O             2.0074-1
 H2O2            2.216-12
 *N              8.447-12
 *NH             9.293-11
 NH2             6.0688-9
 NH3             5.5406-6
 NH2OH           1.215-13
 *NO             7.9978-8
 NO2             7.600-15
 *N2             3.7761-1
 N2H2            7.442-14
 N2O             3.217-12
 N3H             1.926-16
 *O              1.1103-9
 *OH             4.6769-6
 *O2             2.357-10

  * THERMODYNAMIC PROPERTIES FITTED TO 20000.K









         THERMODYNAMIC EQUILIBRIUM COMBUSTION PROPERTIES AT ASSIGNED

                                   PRESSURES

 CASE =                

             REACTANT                       MOLES         ENERGY      TEMP
                                                         KJ/KG-MOL      K
 FUEL        H2                           1.0000000        53.359    300.000
 OXIDANT     O2                           0.5000000        54.358    300.000
 OXIDANT     N2                           1.8810000        53.881    300.000

 O/F=   10.64867  %FUEL=  8.584672  R,EQ.RATIO= 3.200000  PHI,EQ.RATIO= 3.200000

 THERMODYNAMIC PROPERTIES

 P, BAR            1.0000
 T, K             1723.42
 RHO, KG/CU M    1.0320-1
 H, KJ/KG          3.9829
 U, KJ/KG         -964.99
 G, KJ/KG        -26817.7
 S, KJ/(KG)(K)    15.5630

 M, (1/n)          14.788
 (dLV/dLP)t      -1.00004
 (dLV/dLT)p        1.0010
 Cp, KJ/(KG)(K)    2.5366
 GAMMAs            1.2855
 SON VEL,M/SEC     1116.0

 MOLE FRACTIONS

 *H              1.2061-4
 HNO             1.153-11
 HNO2            1.263-14
 HO2             1.452-13
 *H2             4.3289-1
 H2O             1.9680-1
 H2O2            1.484-12
 *N              5.360-12
 *NH             6.694-11
 NH2             5.2030-9
 NH3             6.0151-6
 NH2OH           9.942-14
 *NO             5.5003-8
 NO2             4.165-15
 *N2             3.7018-1
 N2H2            6.167-14
 N2O             2.200-12
 N3H             1.439-16
 *O              6.628-10
 *OH             3.4685-6
 *O2             1.348-10

  * THERMODYNAMIC PROPERTIES FITTED TO 20000.K









         THERMODYNAMIC EQUILIBRIUM COMBUSTION PROPERTIES AT ASSIGNED

                                   PRESSURES

 CASE =                

             REACTANT                       MOLES         ENERGY      TEMP
                                                         KJ/KG-MOL      K
 FUEL        H2                           1.0000000        53.359    300.000
 OXIDANT     O2                           0.5000000        54.358    300.000
 OXIDANT     N2                           1.8810000        53.881    300.000

 O/F=   10.32598  %FUEL=  8.829256  R,EQ.RATIO= 3.300000  PHI,EQ.RATIO= 3.300000

 THERMODYNAMIC PROPERTIES

 P, BAR            1.0000
 T, K             1700.90
 RHO, KG/CU M    1.0283-1
 H, KJ/KG          4.0430
 U, KJ/KG         -968.47
 G, KJ/KG        -26768.3
 S, KJ/(KG)(K)    15.7401

 M, (1/n)          14.542
 (dLV/dLP)t      -1.00003
 (dLV/dLT)p        1.0008
 Cp, KJ/(KG)(K)    2.5646
 GAMMAs            1.2875
 SON VEL,M/SEC     1119.0

 MOLE FRACTIONS

 *H              9.9135-5
 HNO             8.001-12
 HNO2            7.822-15
 HO2             8.403-14
 *H2             4.4385-1
 H2O             1.9300-1
 H2O2            9.982-13
 *N              3.409-12
 *NH             4.826-11
 NH2             4.4576-9
 NH3             6.5136-6
 NH2OH           8.140-14
 *NO             3.7973-8
 NO2             2.298-15
 *N2             3.6304-1
 N2H2            5.110-14
 N2O             1.510-12
 N3H             1.076-16
 *O              3.974-10
 *OH             2.5788-6
 *O2             7.758-11

  * THERMODYNAMIC PROPERTIES FITTED TO 20000.K









         THERMODYNAMIC EQUILIBRIUM COMBUSTION PROPERTIES AT ASSIGNED

                                   PRESSURES

 CASE =                

             REACTANT                       MOLES         ENERGY      TEMP
                                                         KJ/KG-MOL      K
 FUEL        H2                           1.0000000        53.359    300.000
 OXIDANT     O2                           0.5000000        54.358    300.000
 OXIDANT     N2                           1.8810000        53.881    300.000

 O/F=   10.02228  %FUEL=  9.072536  R,EQ.RATIO= 3.400000  PHI,EQ.RATIO= 3.400000

 THERMODYNAMIC PROPERTIES

 P, BAR            1.0000
 T, K             1679.06
 RHO, KG/CU M    1.0247-1
 H, KJ/KG          4.1028
 U, KJ/KG         -971.83
 G, KJ/KG        -26719.2
 S, KJ/(KG)(K)    15.9156

 M, (1/n)          14.305
 (dLV/dLP)t      -1.00003
 (dLV/dLT)p        1.0007
 Cp, KJ/(KG)(K)    2.5927
 GAMMAs            1.2894
 SON VEL,M/SEC     1121.8

 MOLE FRACTIONS

 *H              8.1508-5
 HNO             5.568-12
 HNO2            4.872-15
 HO2             4.889-14
 *H2             4.5439-1
 H2O             1.8935-1
 H2O2            6.741-13
 *N              2.174-12
 *NH             3.484-11
 NH2             3.8172-9
 NH3             7.0369-6
 NH2OH           6.670-14
 *NO             2.6312-8
 NO2             1.276-15
 *N2             3.5617-1
 N2H2            4.234-14
 N2O             1.041-12
 *O              2.393-10
 *OH             1.9220-6
 *O2             4.493-11

  * THERMODYNAMIC PROPERTIES FITTED TO 20000.K









         THERMODYNAMIC EQUILIBRIUM COMBUSTION PROPERTIES AT ASSIGNED

                                   PRESSURES

 CASE =                

             REACTANT                       MOLES         ENERGY      TEMP
                                                         KJ/KG-MOL      K
 FUEL        H2                           1.0000000        53.359    300.000
 OXIDANT     O2                           0.5000000        54.358    300.000
 OXIDANT     N2                           1.8810000        53.881    300.000

 O/F=    9.73593  %FUEL=  9.314520  R,EQ.RATIO= 3.500000  PHI,EQ.RATIO= 3.500000

 THERMODYNAMIC PROPERTIES

 P, BAR            1.0000
 T, K             1657.89
 RHO, KG/CU M    1.0212-1
 H, KJ/KG          4.1624
 U, KJ/KG         -975.09
 G, KJ/KG        -26670.3
 S, KJ/(KG)(K)    16.0894

 M, (1/n)          14.077
 (dLV/dLP)t      -1.00002
 (dLV/dLT)p        1.0006
 Cp, KJ/(KG)(K)    2.6208
 GAMMAs            1.2914
 SON VEL,M/SEC     1124.5

 MOLE FRACTIONS

 *H              6.7042-5
 HNO             3.886-12
 HNO2            3.050-15
 HO2             2.859-14
 *H2             4.6454-1
 H2O             1.8583-1
 H2O2            4.569-13
 *N              1.389-12
 *NH             2.517-11
 NH2             3.2675-9
 NH3             7.5861-6
 NH2OH           5.472-14
 *NO             1.8296-8
 NO2             7.133-16
 *N2             3.4955-1
 N2H2            3.509-14
 N2O             7.199-13
 *O              1.447-10
 *OH             1.4358-6
 *O2             2.617-11

  * THERMODYNAMIC PROPERTIES FITTED TO 20000.K









         THERMODYNAMIC EQUILIBRIUM COMBUSTION PROPERTIES AT ASSIGNED

                                   PRESSURES

 CASE =                

             REACTANT                       MOLES         ENERGY      TEMP
                                                         KJ/KG-MOL      K
 FUEL        H2                           1.0000000        53.359    300.000
 OXIDANT     O2                           0.5000000        54.358    300.000
 OXIDANT     N2                           1.8810000        53.881    300.000

 O/F=    9.46548  %FUEL=  9.555220  R,EQ.RATIO= 3.600000  PHI,EQ.RATIO= 3.600000

 THERMODYNAMIC PROPERTIES

 P, BAR            1.0000
 T, K             1637.34
 RHO, KG/CU M    1.0178-1
 H, KJ/KG          4.2215
 U, KJ/KG         -978.24
 G, KJ/KG        -26621.7
 S, KJ/(KG)(K)    16.2617

 M, (1/n)          13.857
 (dLV/dLP)t      -1.00002
 (dLV/dLT)p        1.0005
 Cp, KJ/(KG)(K)    2.6489
 GAMMAs            1.2932
 SON VEL,M/SEC     1127.2

 MOLE FRACTIONS

 *H              5.5170-5
 HNO             2.720-12
 HNO2            1.918-15
 HO2             1.680-14
 *H2             4.7432-1
 H2O             1.8244-1
 H2O2            3.109-13
 *N              8.899-13
 *NH             1.821-11
 NH2             2.7963-9
 NH3             8.1623-6
 NH2OH           4.493-14
 *NO             1.2765-8
 NO2             4.010-16
 *N2             3.4317-1
 N2H2            2.909-14
 N2O             4.998-13
 *O              8.781-11
 *OH             1.0751-6
 *O2             1.533-11

  * THERMODYNAMIC PROPERTIES FITTED TO 20000.K



