
 *******************************************************************************

         NASA-GLENN CHEMICAL EQUILIBRIUM PROGRAM CEA2, MAY 21, 2004
                   BY  BONNIE MCBRIDE AND SANFORD GORDON
      REFS: NASA RP-1311, PART I, 1994 AND NASA RP-1311, PART II, 1996

 *******************************************************************************



 problem    phi,eq.ratio=2.1,2.2,2.3,2.4,2.5,2.6,2.7,2.8,2.9,3,3.1,3.2,3.3,3.4,3.
 5,3.6,
       hp   p,bar=1,  t,k=3800
 react
   fuel=CH4 moles=0.85 t,k=300
   oxid=O2 moles=2.3 t,k=300
   fuel=C2H6 moles=0.1 t,k=300
   fuel=C3H8 moles=0.05 t,k=300
 output
      trace=1e-16 siunits short
 end




         THERMODYNAMIC EQUILIBRIUM COMBUSTION PROPERTIES AT ASSIGNED

                                   PRESSURES

 CASE =                

             REACTANT                       MOLES         ENERGY      TEMP
                                                         KJ/KG-MOL      K
 FUEL        CH4                          0.8500000    -74533.907    300.000
 OXIDANT     O2                           2.3000000        54.358    300.000
 FUEL        C2H6                         0.1000000    -83754.210    300.000
 FUEL        C3H8                         0.0500000   -104543.521    300.000

 O/F=    1.85944  %FUEL= 34.971885  R,EQ.RATIO= 2.100000  PHI,EQ.RATIO= 2.100000

 THERMODYNAMIC PROPERTIES

 P, BAR            1.0000
 T, K             2543.04
 RHO, KG/CU M    7.4149-2
 H, KJ/KG        -1426.81
 U, KJ/KG        -2775.45
 G, KJ/KG        -42610.6
 S, KJ/(KG)(K)    16.1947

 M, (1/n)          15.678
 (dLV/dLP)t      -1.00550
 (dLV/dLT)p        1.1231
 Cp, KJ/(KG)(K)    4.1424
 GAMMAs            1.1848
 SON VEL,M/SEC     1264.1

 MOLE FRACTIONS

 *C              3.089-12
 *CH             2.073-12
 CH2             1.737-11
 CH3             1.857-10
 CH2OH           3.331-12
 CH3O            5.617-13
 CH4             2.150-10
 CH3OH           7.060-13
 *CO             3.1574-1
 *CO2            3.3344-2
 COOH            8.9217-8
 C2H             2.072-15
 C2H2,acetylene  5.288-13
 C2H2,vinylidene 4.757-16
 CH2CO,ketene    1.546-12
 O(CH)2O         1.199-15
 CH3CO,acetyl    2.981-16
 C2H4            1.270-16
 C2O             1.203-12
 C3O2            2.493-15
 *H              1.8639-2
 HCO             7.8036-7
 HCCO            1.841-13
 HO2             2.8487-8
 *H2             3.7750-1
 HCHO,formaldehy 4.8531-8
 HCOOH           2.9627-8
 H2O             2.5169-1
 H2O2            9.5197-9
 *O              8.6701-5
 *OH             2.9721-3
 *O2             2.3620-5
 O3              4.770-14

  * THERMODYNAMIC PROPERTIES FITTED TO 20000.K









         THERMODYNAMIC EQUILIBRIUM COMBUSTION PROPERTIES AT ASSIGNED

                                   PRESSURES

 CASE =                

             REACTANT                       MOLES         ENERGY      TEMP
                                                         KJ/KG-MOL      K
 FUEL        CH4                          0.8500000    -74533.907    300.000
 OXIDANT     O2                           2.3000000        54.358    300.000
 FUEL        C2H6                         0.1000000    -83754.210    300.000
 FUEL        C3H8                         0.0500000   -104543.521    300.000

 O/F=    1.77492  %FUEL= 36.037077  R,EQ.RATIO= 2.200000  PHI,EQ.RATIO= 2.200000

 THERMODYNAMIC PROPERTIES

 P, BAR            1.0000
 T, K             2438.85
 RHO, KG/CU M    7.5339-2
 H, KJ/KG        -1470.33
 U, KJ/KG        -2797.66
 G, KJ/KG        -41380.8
 S, KJ/(KG)(K)    16.3644

 M, (1/n)          15.277
 (dLV/dLP)t      -1.00344
 (dLV/dLT)p        1.0795
 Cp, KJ/(KG)(K)    3.7026
 GAMMAs            1.2017
 SON VEL,M/SEC     1263.0

 MOLE FRACTIONS

 *C              1.140-12
 *CH             1.020-12
 CH2             1.363-11
 CH3             2.486-10
 CH2OH           3.159-12
 CH3O            4.866-13
 CH4             4.616-10
 CH3OH           1.011-12
 *CO             3.2058-1
 *CO2            2.9937-2
 COOH            5.8028-8
 C2H             1.699-15
 C2H2,acetylene  8.938-13
 C2H2,vinylidene 5.636-16
 CH2CO,ketene    2.336-12
 O(CH)2O         1.254-15
 CH3CO,acetyl    4.290-16
 C2H4            3.358-16
 C2O             8.395-13
 C3O2            2.979-15
 *H              1.2198-2
 HCO             6.0513-7
 HCCO            1.691-13
 HO2             7.4737-9
 *H2             4.0699-1
 HCHO,formaldehy 5.3115-8
 HCOOH           2.7457-8
 H2O             2.2880-1
 H2O2            3.5020-9
 *O              2.6202-5
 *OH             1.4597-3
 *O2             6.0716-6
 O3              4.535-15

  * THERMODYNAMIC PROPERTIES FITTED TO 20000.K









         THERMODYNAMIC EQUILIBRIUM COMBUSTION PROPERTIES AT ASSIGNED

                                   PRESSURES

 CASE =                

             REACTANT                       MOLES         ENERGY      TEMP
                                                         KJ/KG-MOL      K
 FUEL        CH4                          0.8500000    -74533.907    300.000
 OXIDANT     O2                           2.3000000        54.358    300.000
 FUEL        C2H6                         0.1000000    -83754.210    300.000
 FUEL        C3H8                         0.0500000   -104543.521    300.000

 O/F=    1.69775  %FUEL= 37.067936  R,EQ.RATIO= 2.300000  PHI,EQ.RATIO= 2.300000

 THERMODYNAMIC PROPERTIES

 P, BAR            1.0000
 T, K             2329.30
 RHO, KG/CU M    7.6906-2
 H, KJ/KG        -1512.43
 U, KJ/KG        -2812.73
 G, KJ/KG        -39990.8
 S, KJ/(KG)(K)    16.5193

 M, (1/n)          14.894
 (dLV/dLP)t      -1.00202
 (dLV/dLT)p        1.0486
 Cp, KJ/(KG)(K)    3.3725
 GAMMAs            1.2195
 SON VEL,M/SEC     1259.2

 MOLE FRACTIONS

 *C              3.504-13
 *CH             4.317-13
 CH2             9.744-12
 CH3             3.247-10
 CH2OH           2.861-12
 CH3O            3.979-13
 CH4             1.0289-9
 CH3OH           1.454-12
 *CO             3.2438-1
 *CO2            2.7131-2
 COOH            3.5919-8
 C2H             1.250-15
 C2H2,acetylene  1.492-12
 C2H2,vinylidene 6.249-16
 CH2CO,ketene    3.532-12
 O(CH)2O         1.281-15
 C2H3,vinyl      1.223-16
 CH3CO,acetyl    6.074-16
 C2H4            9.171-16
 C2O             5.346-13
 C3O2            3.504-15
 *H              7.4186-3
 HCO             4.4452-7
 HCCO            1.458-13
 HO2             1.6884-9
 *H2             4.3386-1
 HCHO,formaldehy 5.7359-8
 HCOOH           2.5270-8
 H2O             2.0654-1
 H2O2            1.1535-9
 *O              6.8358-6
 *OH             6.5710-4
 *O2             1.3546-6
 O3              3.344-16

  * THERMODYNAMIC PROPERTIES FITTED TO 20000.K









         THERMODYNAMIC EQUILIBRIUM COMBUSTION PROPERTIES AT ASSIGNED

                                   PRESSURES

 CASE =                

             REACTANT                       MOLES         ENERGY      TEMP
                                                         KJ/KG-MOL      K
 FUEL        CH4                          0.8500000    -74533.907    300.000
 OXIDANT     O2                           2.3000000        54.358    300.000
 FUEL        C2H6                         0.1000000    -83754.210    300.000
 FUEL        C3H8                         0.0500000   -104543.521    300.000

 O/F=    1.62701  %FUEL= 38.066093  R,EQ.RATIO= 2.400000  PHI,EQ.RATIO= 2.400000

 THERMODYNAMIC PROPERTIES

 P, BAR            1.0000
 T, K             2216.23
 RHO, KG/CU M    7.8854-2
 H, KJ/KG        -1553.21
 U, KJ/KG        -2821.37
 G, KJ/KG        -38474.2
 S, KJ/(KG)(K)    16.6594

 M, (1/n)          14.530
 (dLV/dLP)t      -1.00111
 (dLV/dLT)p        1.0279
 Cp, KJ/(KG)(K)    3.1385
 GAMMAs            1.2369
 SON VEL,M/SEC     1252.4

 MOLE FRACTIONS

 *C              8.920-14
 *CH             1.566-13
 CH2             6.350-12
 CH3             4.160-10
 CH2OH           2.480-12
 CH3O            3.078-13
 CH4             2.4070-9
 CH3OH           2.118-12
 *CO             3.2733-1
 *CO2            2.4820-2
 COOH            2.1120-8
 C2H             8.263-16
 C2H2,acetylene  2.481-12
 C2H2,vinylidene 6.513-16
 CH2CO,ketene    5.379-12
 O(CH)2O         1.283-15
 C2H3,vinyl      1.776-16
 CH3CO,acetyl    8.521-16
 C2H4            2.621-15
 CH3CHO,ethanal  1.687-16
 C2O             3.103-13
 C3O2            4.076-15
 *H              4.1830-3
 HCO             3.0911-7
 HCCO            1.184-13
 HO2             3.252-10
 *H2             4.5817-1
 HCHO,formaldehy 6.1303-8
 HCOOH           2.3146-8
 H2O             1.8522-1
 H2O2            3.379-10
 *O              1.5249-6
 *OH             2.6972-4
 *O2             2.5942-7

  * THERMODYNAMIC PROPERTIES FITTED TO 20000.K









         THERMODYNAMIC EQUILIBRIUM COMBUSTION PROPERTIES AT ASSIGNED

                                   PRESSURES

 CASE =                

             REACTANT                       MOLES         ENERGY      TEMP
                                                         KJ/KG-MOL      K
 FUEL        CH4                          0.8500000    -74533.907    300.000
 OXIDANT     O2                           2.3000000        54.358    300.000
 FUEL        C2H6                         0.1000000    -83754.210    300.000
 FUEL        C3H8                         0.0500000   -104543.521    300.000

 O/F=    1.56193  %FUEL= 39.033081  R,EQ.RATIO= 2.500000  PHI,EQ.RATIO= 2.500000

 THERMODYNAMIC PROPERTIES

 P, BAR            1.0000
 T, K             2101.77
 RHO, KG/CU M    8.1176-2
 H, KJ/KG        -1592.70
 U, KJ/KG        -2824.59
 G, KJ/KG        -36870.8
 S, KJ/(KG)(K)    16.7850

 M, (1/n)          14.186
 (dLV/dLP)t      -1.00057
 (dLV/dLT)p        1.0150
 Cp, KJ/(KG)(K)    2.9847
 GAMMAs            1.2527
 SON VEL,M/SEC     1242.3

 MOLE FRACTIONS

 *C              1.878-14
 *CH             4.872-14
 CH2             3.782-12
 CH3             5.258-10
 CH2OH           2.064-12
 CH3O            2.261-13
 CH4             5.9576-9
 CH3OH           3.137-12
 *CO             3.2963-1
 *CO2            2.2911-2
 COOH            1.1791-8
 C2H             4.927-16
 C2H2,acetylene  4.138-12
 C2H2,vinylidene 6.419-16
 CH2CO,ketene    8.303-12
 O(CH)2O         1.266-15
 C2H3,vinyl      2.525-16
 CH3CO,acetyl    1.193-15
 C2H4            7.919-15
 CH3CHO,ethanal  3.916-16
 C2O             1.645-13
 C3O2            4.711-15
 *H              2.1865-3
 HCO             2.0364-7
 HCCO            9.080-14
 HO2             5.311-11
 *H2             4.8017-1
 HCHO,formaldehy 6.5026-8
 HCOOH           2.1138-8
 H2O             1.6501-1
 H2O2            8.772-11
 *O              2.8962-7
 *OH             1.0071-4
 *O2             4.2387-8

  * THERMODYNAMIC PROPERTIES FITTED TO 20000.K









         THERMODYNAMIC EQUILIBRIUM COMBUSTION PROPERTIES AT ASSIGNED

                                   PRESSURES

 CASE =                

             REACTANT                       MOLES         ENERGY      TEMP
                                                         KJ/KG-MOL      K
 FUEL        CH4                          0.8500000    -74533.907    300.000
 OXIDANT     O2                           2.3000000        54.358    300.000
 FUEL        C2H6                         0.1000000    -83754.210    300.000
 FUEL        C3H8                         0.0500000   -104543.521    300.000

 O/F=    1.50186  %FUEL= 39.970338  R,EQ.RATIO= 2.600000  PHI,EQ.RATIO= 2.600000

 THERMODYNAMIC PROPERTIES

 P, BAR            1.0000
 T, K             1988.01
 RHO, KG/CU M    8.3859-2
 H, KJ/KG        -1630.99
 U, KJ/KG        -2823.46
 G, KJ/KG        -35220.6
 S, KJ/(KG)(K)    16.8961

 M, (1/n)          13.861
 (dLV/dLP)t      -1.00027
 (dLV/dLT)p        1.0076
 Cp, KJ/(KG)(K)    2.8922
 GAMMAs            1.2663
 SON VEL,M/SEC     1228.8

 MOLE FRACTIONS

 *C              3.282-15
 *CH             1.305-14
 CH2             2.068-12
 CH3             6.585-10
 CH2OH           1.654-12
 CH3O            1.583-13
 CH4             1.5697-8
 CH3OH           4.749-12
 *CO             3.3143-1
 *CO2            2.1320-2
 COOH            6.2506-9
 C2H             2.668-16
 C2H2,acetylene  6.970-12
 C2H2,vinylidene 6.025-16
 CH2CO,ketene    1.305-11
 O(CH)2O         1.234-15
 C2H3,vinyl      3.543-16
 CH3CO,acetyl    1.678-15
 C2H4            2.552-14
 CH3CHO,ethanal  9.585-16
 C2O             7.994-14
 C3O2            5.436-15
 *H              1.0610-3
 HCO             1.2731-7
 HCCO            6.607-14
 HO2             7.340-12
 *H2             5.0018-1
 HCHO,formaldehy 6.8627-8
 HCOOH           1.9273-8
 H2O             1.4598-1
 H2O2            2.016-11
 *O              4.6793-8
 *OH             3.4179-5
 *O2             5.8923-9

  * THERMODYNAMIC PROPERTIES FITTED TO 20000.K









         THERMODYNAMIC EQUILIBRIUM COMBUSTION PROPERTIES AT ASSIGNED

                                   PRESSURES

 CASE =                

             REACTANT                       MOLES         ENERGY      TEMP
                                                         KJ/KG-MOL      K
 FUEL        CH4                          0.8500000    -74533.907    300.000
 OXIDANT     O2                           2.3000000        54.358    300.000
 FUEL        C2H6                         0.1000000    -83754.210    300.000
 FUEL        C3H8                         0.0500000   -104543.521    300.000

 O/F=    1.44623  %FUEL= 40.879215  R,EQ.RATIO= 2.700000  PHI,EQ.RATIO= 2.700000

 THERMODYNAMIC PROPERTIES

 P, BAR            1.0000
 T, K             1876.57
 RHO, KG/CU M    8.6890-2
 H, KJ/KG        -1668.11
 U, KJ/KG        -2818.99
 G, KJ/KG        -33556.5
 S, KJ/(KG)(K)    16.9929

 M, (1/n)          13.557
 (dLV/dLP)t      -1.00012
 (dLV/dLT)p        1.0036
 Cp, KJ/(KG)(K)    2.8421
 GAMMAs            1.2775
 SON VEL,M/SEC     1212.5

 MOLE FRACTIONS

 *C              4.775-16
 *CH             3.023-15
 CH2             1.043-12
 CH3             8.211-10
 CH2OH           1.281-12
 CH3O            1.060-13
 CH4             4.4257-8
 CH3OH           7.368-12
 *CO             3.3288-1
 *CO2            1.9976-2
 COOH            3.1457-9
 C2H             1.321-16
 C2H2,acetylene  1.194-11
 C2H2,vinylidene 5.421-16
 CH2CO,ketene    2.101-11
 O(CH)2O         1.194-15
 C2H3,vinyl      4.940-16
 CH3CO,acetyl    2.383-15
 C2H4            8.840-14
 CH3CHO,ethanal  2.490-15
 CH3COOH         1.101-16
 C2O             3.576-14
 C3O2            6.291-15
 *H              4.7852-4
 HCO             7.5635-8
 HCCO            4.581-14
 HO2             8.564-13
 *H2             5.1853-1
 HCHO,formaldehy 7.2205-8
 HCOOH           1.7556-8
 H2O             1.2812-1
 H2O2            4.092-12
 *O              6.4238-9
 *OH             1.0533-5
 *O2             6.946-10

  * THERMODYNAMIC PROPERTIES FITTED TO 20000.K









         THERMODYNAMIC EQUILIBRIUM COMBUSTION PROPERTIES AT ASSIGNED

                                   PRESSURES

 CASE =                

             REACTANT                       MOLES         ENERGY      TEMP
                                                         KJ/KG-MOL      K
 FUEL        CH4                          0.8500000    -74533.907    300.000
 OXIDANT     O2                           2.3000000        54.358    300.000
 FUEL        C2H6                         0.1000000    -83754.210    300.000
 FUEL        C3H8                         0.0500000   -104543.521    300.000

 O/F=    1.39458  %FUEL= 41.760980  R,EQ.RATIO= 2.800000  PHI,EQ.RATIO= 2.800000

 THERMODYNAMIC PROPERTIES

 P, BAR            1.0000
 T, K             1768.48
 RHO, KG/CU M    9.0267-2
 H, KJ/KG        -1704.13
 U, KJ/KG        -2811.95
 G, KJ/KG        -31901.9
 S, KJ/(KG)(K)    17.0755

 M, (1/n)          13.273
 (dLV/dLP)t      -1.00005
 (dLV/dLT)p        1.0016
 Cp, KJ/(KG)(K)    2.8186
 GAMMAs            1.2868
 SON VEL,M/SEC     1194.0

 MOLE FRACTIONS

 *CH             6.053-16
 CH2             4.855-13
 CH3             1.0235-9
 CH2OH           9.593-13
 CH3O            6.794-14
 CH4             1.3437-7
 CH3OH           1.175-11
 *CO             3.3408-1
 *CO2            1.8822-2
 COOH            1.4998-9
 C2H2,acetylene  2.093-11
 C2H2,vinylidene 4.699-16
 CH2CO,ketene    3.477-11
 O(CH)2O         1.148-15
 C2H3,vinyl      6.894-16
 CH3CO,acetyl    3.437-15
 C2H4            3.321-13
 CH3CHO,ethanal  6.914-15
 CH3COOH         2.620-16
 C2H6            2.762-16
 C2O             1.475-14
 C3O2            7.332-15
 *H              2.0046-4
 HCO             4.2696-8
 HCCO            3.035-14
 HO2             8.373-14
 *H2             5.3548-1
 HCHO,formaldehy 7.5851-8
 HCOOH           1.5979-8
 H2O             1.1141-1
 H2O2            7.296-13
 *O              7.454-10
 *OH             2.9369-6
 *O2             6.891-11

  * THERMODYNAMIC PROPERTIES FITTED TO 20000.K









         THERMODYNAMIC EQUILIBRIUM COMBUSTION PROPERTIES AT ASSIGNED

                                   PRESSURES

 CASE =                

             REACTANT                       MOLES         ENERGY      TEMP
                                                         KJ/KG-MOL      K
 FUEL        CH4                          0.8500000    -74533.907    300.000
 OXIDANT     O2                           2.3000000        54.358    300.000
 FUEL        C2H6                         0.1000000    -83754.210    300.000
 FUEL        C3H8                         0.0500000   -104543.521    300.000

 O/F=    1.34649  %FUEL= 42.616829  R,EQ.RATIO= 2.900000  PHI,EQ.RATIO= 2.900000

 THERMODYNAMIC PROPERTIES

 P, BAR            1.0000
 T, K             1664.24
 RHO, KG/CU M    9.4001-2
 H, KJ/KG        -1739.09
 U, KJ/KG        -2802.91
 G, KJ/KG        -30270.8
 S, KJ/(KG)(K)    17.1440

 M, (1/n)          13.007
 (dLV/dLP)t      -1.00002
 (dLV/dLT)p        1.0007
 Cp, KJ/(KG)(K)    2.8104
 GAMMAs            1.2949
 SON VEL,M/SEC     1173.7

 MOLE FRACTIONS

 *CH             1.043-16
 CH2             2.086-13
 CH3             1.2802-9
 CH2OH           6.947-13
 CH3O            4.170-14
 CH4             4.4303-7
 CH3OH           1.936-11
 *CO             3.3512-1
 *CO2            1.7805-2
 COOH            6.746-10
 C2H2,acetylene  3.786-11
 C2H2,vinylidene 3.942-16
 CH2CO,ketene    5.951-11
 O(CH)2O         1.099-15
 C2H3,vinyl      9.690-16
 CH3CO,acetyl    5.062-15
 C2H4            1.369-12
 CH3CHO,ethanal  2.069-14
 CH3COOH         6.708-16
 C2H6            2.143-15
 C2O             5.596-15
 C3O2            8.640-15
 *H              7.7735-5
 HCO             2.2854-8
 HCCO            1.923-14
 HO2             6.765-15
 *H2             5.5121-1
 HCHO,formaldehy 7.9649-8
 HCOOH           1.4523-8
 H2O             9.5780-2
 H2O2            1.130-13
 *O              7.227-11
 *OH             7.3539-7
 *O2             5.673-12

  * THERMODYNAMIC PROPERTIES FITTED TO 20000.K









         THERMODYNAMIC EQUILIBRIUM COMBUSTION PROPERTIES AT ASSIGNED

                                   PRESSURES

 CASE =                

             REACTANT                       MOLES         ENERGY      TEMP
                                                         KJ/KG-MOL      K
 FUEL        CH4                          0.8500000    -74533.907    300.000
 OXIDANT     O2                           2.3000000        54.358    300.000
 FUEL        C2H6                         0.1000000    -83754.210    300.000
 FUEL        C3H8                         0.0500000   -104543.521    300.000

 O/F=    1.30161  %FUEL= 43.447888  R,EQ.RATIO= 3.000000  PHI,EQ.RATIO= 3.000000

 THERMODYNAMIC PROPERTIES

 P, BAR            1.0000
 T, K             1563.97
 RHO, KG/CU M    9.8117-2
 H, KJ/KG        -1773.04
 U, KJ/KG        -2792.23
 G, KJ/KG        -28670.9
 S, KJ/(KG)(K)    17.1984

 M, (1/n)          12.759
 (dLV/dLP)t      -1.00001
 (dLV/dLT)p        1.0003
 Cp, KJ/(KG)(K)    2.8102
 GAMMAs            1.3021
 SON VEL,M/SEC     1152.0

 MOLE FRACTIONS

 CH2             8.242-14
 CH3             1.6135-9
 CH2OH           4.857-13
 CH3O            2.444-14
 CH4             1.6042-6
 CH3OH           3.304-11
 *CO             3.3606-1
 *CO2            1.6881-2
 COOH            2.842-10
 C2H2,acetylene  7.128-11
 C2H2,vinylidene 3.209-16
 CH2CO,ketene    1.061-10
 O(CH)2O         1.049-15
 C2H3,vinyl      1.382-15
 CH3CO,acetyl    7.659-15
 C2H4            6.290-12
 CH3CHO,ethanal  6.748-14
 CH3COOH         1.864-15
 C2H5            2.002-16
 C2H6            1.952-14
 C2O             1.946-15
 C3O2            1.034-14
 *H              2.7727-5
 HCO             1.1552-8
 HCCO            1.165-14
 HO2             4.419-16
 *H2             5.6588-1
 HCHO,formaldehy 8.3680-8
 HCOOH           1.3164-8
 H2O             8.1159-2
 H2O2            1.495-14
 *O              5.748-12
 *OH             1.6342-7
 *O2             3.792-13

  * THERMODYNAMIC PROPERTIES FITTED TO 20000.K









         THERMODYNAMIC EQUILIBRIUM COMBUSTION PROPERTIES AT ASSIGNED

                                   PRESSURES

 CASE =                

             REACTANT                       MOLES         ENERGY      TEMP
                                                         KJ/KG-MOL      K
 FUEL        CH4                          0.8500000    -74533.907    300.000
 OXIDANT     O2                           2.3000000        54.358    300.000
 FUEL        C2H6                         0.1000000    -83754.210    300.000
 FUEL        C3H8                         0.0500000   -104543.521    300.000

 O/F=    1.25962  %FUEL= 44.255219  R,EQ.RATIO= 3.100000  PHI,EQ.RATIO= 3.100000

 THERMODYNAMIC PROPERTIES

 P, BAR            1.0000
 T, K             1467.61
 RHO, KG/CU M    1.0265-1
 H, KJ/KG        -1806.02
 U, KJ/KG        -2780.17
 G, KJ/KG        -27105.6
 S, KJ/(KG)(K)    17.2387

 M, (1/n)          12.526
 (dLV/dLP)t      -1.00003
 (dLV/dLT)p        1.0003
 Cp, KJ/(KG)(K)    2.8144
 GAMMAs            1.3089
 SON VEL,M/SEC     1129.2

 MOLE FRACTIONS

 CH2             2.976-14
 CH3             2.0590-9
 CH2OH           3.269-13
 CH3O            1.362-14
 CH4             6.4743-6
 CH3OH           5.877-11
 *CO             3.3694-1
 *CO2            1.5999-2
 COOH            1.110-10
 C2H2,acetylene  1.413-10
 C2H2,vinylidene 2.545-16
 CH2CO,ketene    1.985-10
 O(CH)2O         9.987-16
 C2H3,vinyl      2.017-15
 CH3CO,acetyl    1.199-14
 C2H4            3.284-11
 CH3CHO,ethanal  2.434-13
 CH3COOH         5.684-15
 C2H5            7.688-16
 C2H6            2.143-13
 C2O             6.160-16
 C3H4,propyne    1.071-16
 C3O2            1.264-14
 *H              9.0131-6
 HCO             5.4804-9
 HCCO            6.739-15
 *H2             5.7955-1
 HCHO,formaldehy 8.8023-8
 HCOOH           1.1873-8
 H2O             6.7499-2
 H2O2            1.650-15
 *O              3.655-13
 *OH             3.1704-8
 *O2             1.997-14

  * THERMODYNAMIC PROPERTIES FITTED TO 20000.K









         THERMODYNAMIC EQUILIBRIUM COMBUSTION PROPERTIES AT ASSIGNED

                                   PRESSURES

 CASE =                

             REACTANT                       MOLES         ENERGY      TEMP
                                                         KJ/KG-MOL      K
 FUEL        CH4                          0.8500000    -74533.907    300.000
 OXIDANT     O2                           2.3000000        54.358    300.000
 FUEL        C2H6                         0.1000000    -83754.210    300.000
 FUEL        C3H8                         0.0500000   -104543.521    300.000

 O/F=    1.22026  %FUEL= 45.039824  R,EQ.RATIO= 3.200000  PHI,EQ.RATIO= 3.200000

 THERMODYNAMIC PROPERTIES

 P, BAR            1.0000
 T, K             1375.03
 RHO, KG/CU M    1.0766-1
 H, KJ/KG        -1838.06
 U, KJ/KG        -2766.90
 G, KJ/KG        -25577.2
 S, KJ/(KG)(K)    17.2645

 M, (1/n)          12.309
 (dLV/dLP)t      -1.00012
 (dLV/dLT)p        1.0012
 Cp, KJ/(KG)(K)    2.8250
 GAMMAs            1.3151
 SON VEL,M/SEC     1105.2

 MOLE FRACTIONS

 CH2             9.751-15
 CH3             2.6761-9
 CH2OH           2.109-13
 CH3O            7.179-15
 CH4             2.9642-5
 CH3OH           1.096-10
 *CO             3.3783-1
 *CO2            1.5105-2
 COOH            3.970-11
 C2H2,acetylene  2.991-10
 C2H2,vinylidene 1.975-16
 CH2CO,ketene    3.944-10
 O(CH)2O         9.495-16
 C2H3,vinyl      3.048-15
 CH3CO,acetyl    1.959-14
 C2H4            1.996-10
 CH3CHO,ethanal  9.872-13
 CH3COOH         1.926-14
 C2H5            3.335-15
 C2H6            2.927-12
 C2H5OH          1.113-16
 C2O             1.761-16
 C3H4,allene     2.758-16
 C3H4,propyne    8.233-16
 C3H6,propylene  3.121-16
 C3O2            1.589-14
 *H              2.6406-6
 HCO             2.4219-9
 HCCO            3.715-15
 *H2             5.9225-1
 HCHO,formaldehy 9.2764-8
 HCOOH           1.0617-8
 H2O             5.4781-2
 H2O2            1.475-16
 *O              1.800-14
 *OH             5.2609-9
 *O2             7.987-16

  * THERMODYNAMIC PROPERTIES FITTED TO 20000.K









         THERMODYNAMIC EQUILIBRIUM COMBUSTION PROPERTIES AT ASSIGNED

                                   PRESSURES

 CASE =                

             REACTANT                       MOLES         ENERGY      TEMP
                                                         KJ/KG-MOL      K
 FUEL        CH4                          0.8500000    -74533.907    300.000
 OXIDANT     O2                           2.3000000        54.358    300.000
 FUEL        C2H6                         0.1000000    -83754.210    300.000
 FUEL        C3H8                         0.0500000   -104543.521    300.000

 O/F=    1.18328  %FUEL= 45.802648  R,EQ.RATIO= 3.300000  PHI,EQ.RATIO= 3.300000

 THERMODYNAMIC PROPERTIES

 P, BAR            1.0000
 T, K             1286.54
 RHO, KG/CU M    1.1318-1
 H, KJ/KG        -1869.22
 U, KJ/KG        -2752.78
 G, KJ/KG        -24095.2
 S, KJ/(KG)(K)    17.2758

 M, (1/n)          12.107
 (dLV/dLP)t      -1.00062
 (dLV/dLT)p        1.0068
 Cp, KJ/(KG)(K)    2.8714
 GAMMAs            1.3190
 SON VEL,M/SEC     1079.5

 MOLE FRACTIONS

 CH2             2.897-15
 CH3             3.5646-9
 CH2OH           1.301-13
 CH3O            3.567-15
 CH4             1.5593-4
 CH3OH           2.148-10
 *CO             3.3876-1
 *CO2            1.4133-2
 COOH            1.287-11
 C2H2,acetylene  6.866-10
 C2H2,vinylidene 1.514-16
 CH2CO,ketene    8.393-10
 O(CH)2O         9.018-16
 C2H3,vinyl      4.827-15
 CH3CO,acetyl    3.369-14
 C2H4            1.4411-9
 CH3CHO,ethanal  4.562-12
 CH3COOH         7.312-14
 C2H5            1.663-14
 C2H6            5.095-11
 C2H5OH          8.143-16
 C3H3,2-propynl  1.468-16
 C3H4,allene     2.494-15
 C3H4,propyne    7.754-15
 C3H6,propylene  8.479-15
 C3O2            2.071-14
 *H              6.9287-7
 HCO             9.927-10
 HCCO            1.957-15
 *H2             6.0387-1
 HCHO,formaldehy 9.7950-8
 HCOOH           9.3644-9
 H2O             4.3082-2
 *O              6.724-16
 *OH             7.355-10

  * THERMODYNAMIC PROPERTIES FITTED TO 20000.K









         THERMODYNAMIC EQUILIBRIUM COMBUSTION PROPERTIES AT ASSIGNED

                                   PRESSURES

 CASE =                

             REACTANT                       MOLES         ENERGY      TEMP
                                                         KJ/KG-MOL      K
 FUEL        CH4                          0.8500000    -74533.907    300.000
 OXIDANT     O2                           2.3000000        54.358    300.000
 FUEL        C2H6                         0.1000000    -83754.210    300.000
 FUEL        C3H8                         0.0500000   -104543.521    300.000

 O/F=    1.14848  %FUEL= 46.544588  R,EQ.RATIO= 3.400000  PHI,EQ.RATIO= 3.400000

 THERMODYNAMIC PROPERTIES

 P, BAR            1.0000
 T, K             1205.41
 RHO, KG/CU M    1.1905-1
 H, KJ/KG        -1899.53
 U, KJ/KG        -2739.55
 G, KJ/KG        -22719.7
 S, KJ/(KG)(K)    17.2722

 M, (1/n)          11.931
 (dLV/dLP)t      -1.00345
 (dLV/dLT)p        1.0406
 Cp, KJ/(KG)(K)    3.1555
 GAMMAs            1.3083
 SON VEL,M/SEC     1048.3

 MOLE FRACTIONS

 CH2             8.201-16
 CH3             4.8368-9
 CH2OH           7.798-14
 CH3O            1.712-15
 CH4             8.9001-4
 CH3OH           4.308-10
 *CO             3.3962-1
 *CO2            1.3057-2
 COOH            3.912-12
 C2H2,acetylene  1.6753-9
 C2H2,vinylidene 1.170-16
 CH2CO,ketene    1.8699-9
 O(CH)2O         8.567-16
 C2H3,vinyl      7.958-15
 CH3CO,acetyl    6.004-14
 C2H4            1.1607-8
 CH3CHO,ethanal  2.279-11
 CH3COOH         2.954-13
 C2H5            9.078-14
 C2H6            1.0268-9
 C2H5OH          6.559-15
 C3H3,2-propynl  6.001-16
 C3H4,allene     2.581-14
 C3H4,propyne    8.366-14
 C3H5,allyl      5.328-16
 C3H6,propylene  2.762-13
 C3H6,cyclo-     2.484-16
 C3H6O,acetone   4.527-16
 C3H8            3.983-15
 C3O2            2.786-14
 *H              1.7105-7
 HCO             3.897-10
 HCCO            1.014-15
 *H2             6.1353-1
 HCHO,formaldehy 1.0331-7
 HCOOH           8.1319-9
 H2O             3.2896-2
 *OH             9.256-11

  * THERMODYNAMIC PROPERTIES FITTED TO 20000.K









         THERMODYNAMIC EQUILIBRIUM COMBUSTION PROPERTIES AT ASSIGNED

                                   PRESSURES

 CASE =                

             REACTANT                       MOLES         ENERGY      TEMP
                                                         KJ/KG-MOL      K
 FUEL        CH4                          0.8500000    -74533.907    300.000
 OXIDANT     O2                           2.3000000        54.358    300.000
 FUEL        C2H6                         0.1000000    -83754.210    300.000
 FUEL        C3H8                         0.0500000   -104543.521    300.000

 O/F=    1.11566  %FUEL= 47.266487  R,EQ.RATIO= 3.500000  PHI,EQ.RATIO= 3.500000

 THERMODYNAMIC PROPERTIES

 P, BAR            1.0000
 T, K             1143.59
 RHO, KG/CU M    1.2432-1
 H, KJ/KG        -1929.02
 U, KJ/KG        -2733.40
 G, KJ/KG        -21661.9
 S, KJ/(KG)(K)    17.2553

 M, (1/n)          11.821
 (dLV/dLP)t      -1.01367
 (dLV/dLT)p        1.1701
 Cp, KJ/(KG)(K)    4.3179
 GAMMAs            1.2648
 SON VEL,M/SEC     1008.6

 MOLE FRACTIONS

 CH2             2.781-16
 CH3             6.2674-9
 CH2OH           4.980-14
 CH3O            9.063-16
 CH4             3.9454-3
 CH3OH           7.726-10
 *CO             3.3968-1
 *CO2            1.2105-2
 COOH            1.395-12
 C2H2,acetylene  3.6297-9
 CH2CO,ketene    3.7195-9
 O(CH)2O         8.164-16
 C2H3,vinyl      1.227-14
 CH3CO,acetyl    9.847-14
 C2H4            6.9599-8
 CH3CHO,ethanal  9.013-11
 CH3COOH         9.701-13
 C2H5            3.888-13
 C2H6            1.3447-8
 C2H5OH          3.888-14
 C3H3,2-propynl  2.033-15
 C3H4,allene     1.934-13
 C3H4,propyne    6.497-13
 C3H5,allyl      4.674-15
 C3H6,propylene  5.502-12
 C3H6,cyclo-     4.128-15
 C3H6O,acetone   6.614-15
 C3H6O,propanal  8.235-16
 C3H8            1.615-13
 C3O2            3.620-14
 C4H6,butadiene  8.083-16
 *H              5.1524-8
 HCO             1.741-10
 HCCO            5.792-16
 *H2             6.1855-1
 HCHO,formaldehy 1.0739-7
 HCOOH           7.1303-9
 H2O             2.5720-2
 *OH             1.549-11

  * THERMODYNAMIC PROPERTIES FITTED TO 20000.K









         THERMODYNAMIC EQUILIBRIUM COMBUSTION PROPERTIES AT ASSIGNED

                                   PRESSURES

 CASE =                

             REACTANT                       MOLES         ENERGY      TEMP
                                                         KJ/KG-MOL      K
 FUEL        CH4                          0.8500000    -74533.907    300.000
 OXIDANT     O2                           2.3000000        54.358    300.000
 FUEL        C2H6                         0.1000000    -83754.210    300.000
 FUEL        C3H8                         0.0500000   -104543.521    300.000

 O/F=    1.08467  %FUEL= 47.969149  R,EQ.RATIO= 3.600000  PHI,EQ.RATIO= 3.600000

 THERMODYNAMIC PROPERTIES

 P, BAR            1.0000
 T, K             1106.74
 RHO, KG/CU M    1.2813-1
 H, KJ/KG        -1957.72
 U, KJ/KG        -2738.17
 G, KJ/KG        -21025.9
 S, KJ/(KG)(K)    17.2291

 M, (1/n)          11.791
 (dLV/dLP)t      -1.02832
 (dLV/dLT)p        1.3653
 Cp, KJ/(KG)(K)    6.1643
 GAMMAs            1.2269
 SON VEL,M/SEC      978.5

 MOLE FRACTIONS

 CH2             1.355-16
 CH3             7.2687-9
 CH2OH           3.674-14
 CH3O            5.925-16
 CH4             1.0140-2
 CH3OH           1.1105-9
 *CO             3.3839-1
 *CO2            1.1566-2
 COOH            7.145-13
 C2H2,acetylene  5.8408-9
 CH2CO,ketene    5.7006-9
 O(CH)2O         7.821-16
 C2H3,vinyl      1.578-14
 CH3CO,acetyl    1.328-13
 C2H4            2.1546-7
 CH3CHO,ethanal  2.144-10
 CH3COOH         2.063-12
 C2H5            9.645-13
 C2H6            6.8697-8
 C2H5OH          1.196-13
 C3H3,2-propynl  4.315-15
 C3H4,allene     6.856-13
 C3H4,propyne    2.356-12
 C3H5,allyl      1.830-14
 C3H6,propylene  3.655-11
 C3H6,cyclo-     2.440-14
 C3H6O,acetone   3.618-14
 C3H6O,propanal  3.970-15
 C3H8            1.692-12
 C3O2            4.224-14
 C4H6,butadiene  7.166-15
 C4H6,2butyne    1.511-16
 C4H8,1-butene   8.465-16
 C4H8,cis2-buten 5.677-16
 C4H8,tr2-butene 6.478-16
 C4H8,isobutene  9.243-16
 C6H6            2.784-15
 *H              2.3594-8
 HCO             1.024-10
 HCCO            3.961-16
 *H2             6.1799-1
 HCHO,formaldehy 1.0903-7
 HCOOH           6.5379-9
 H2O             2.1914-2
 *OH             4.870-12

  * THERMODYNAMIC PROPERTIES FITTED TO 20000.K



