
 *******************************************************************************

         NASA-GLENN CHEMICAL EQUILIBRIUM PROGRAM CEA2, MAY 21, 2004
                   BY  BONNIE MCBRIDE AND SANFORD GORDON
      REFS: NASA RP-1311, PART I, 1994 AND NASA RP-1311, PART II, 1996

 *******************************************************************************



 problem    phi,eq.ratio=0.5,0.6,0.7,0.8,0.9,1,1.1,1.2,1.3,1.4,1.5,1.6,1.7,1.8,1.
 9,2,
       hp   p,bar=1,  t,k=3800
 react
   fuel=CH4 moles=0.85  t,k=300
   oxid=O2 moles=2.3  t,k=300
   oxid=N2 moles=8.6524  t,k=300
   fuel=C2H6 moles=0.1  t,k=300
   fuel=C3H8 moles=0.05  t,k=300
 output  short   trace=1e-16
 end




         THERMODYNAMIC EQUILIBRIUM COMBUSTION PROPERTIES AT ASSIGNED

                                   PRESSURES

 CASE =                

             REACTANT                       MOLES         ENERGY      TEMP
                                                         KJ/KG-MOL      K
 FUEL        CH4                          0.8500000    -74533.907    300.000
 OXIDANT     O2                           2.3000000        54.358    300.000
 OXIDANT     N2                           8.6524000        53.881    300.000
 FUEL        C2H6                         0.1000000    -83754.210    300.000
 FUEL        C3H8                         0.0500000   -104543.521    300.000

 O/F=   33.52973  %FUEL=  2.896055  R,EQ.RATIO= 0.500000  PHI,EQ.RATIO= 0.500000

 THERMODYNAMIC PROPERTIES

 P, BAR            1.0000
 T, K             1486.60
 RHO, KG/CU M    2.2887-1
 H, KJ/KG         -116.43
 U, KJ/KG         -553.35
 G, KJ/KG        -13439.2
 S, KJ/(KG)(K)     8.9619

 M, (1/n)          28.290
 (dLV/dLP)t      -1.00001
 (dLV/dLT)p        1.0002
 Cp, KJ/(KG)(K)    1.3374
 GAMMAs            1.2818
 SON VEL,M/SEC      748.4

 MOLE FRACTIONS

 *CO             6.5994-7
 *CO2            5.2162-2
 COOH            3.958-13
 *H              1.0354-8
 HNCO            2.494-16
 HNO             1.558-10
 HNO2            3.2950-8
 HNO3            1.886-11
 HO2             1.0332-7
 *H2             4.7766-7
 HCOOH           3.238-14
 H2O             9.5597-2
 H2O2            5.8461-9
 *N              3.727-14
 *NH             1.895-15
 NH2             1.060-15
 NH3             1.856-14
 *NO             7.7033-4
 NO2             2.9774-6
 NO3             1.192-12
 *N2             7.5183-1
 N2O             4.6448-8
 N2O3            8.268-15
 *O              1.0648-6
 *OH             6.6717-5
 *O2             9.9573-2
 O3              8.961-11

  * THERMODYNAMIC PROPERTIES FITTED TO 20000.K









         THERMODYNAMIC EQUILIBRIUM COMBUSTION PROPERTIES AT ASSIGNED

                                   PRESSURES

 CASE =                

             REACTANT                       MOLES         ENERGY      TEMP
                                                         KJ/KG-MOL      K
 FUEL        CH4                          0.8500000    -74533.907    300.000
 OXIDANT     O2                           2.3000000        54.358    300.000
 OXIDANT     N2                           8.6524000        53.881    300.000
 FUEL        C2H6                         0.1000000    -83754.210    300.000
 FUEL        C3H8                         0.0500000   -104543.521    300.000

 O/F=   27.94144  %FUEL=  3.455253  R,EQ.RATIO= 0.600000  PHI,EQ.RATIO= 0.600000

 THERMODYNAMIC PROPERTIES

 P, BAR            1.0000
 T, K             1673.56
 RHO, KG/CU M    2.0253-1
 H, KJ/KG         -139.27
 U, KJ/KG         -633.02
 G, KJ/KG        -15493.2
 S, KJ/(KG)(K)     9.1744

 M, (1/n)          28.182
 (dLV/dLP)t      -1.00003
 (dLV/dLT)p        1.0011
 Cp, KJ/(KG)(K)    1.3997
 GAMMAs            1.2678
 SON VEL,M/SEC      791.2

 MOLE FRACTIONS

 *CO             1.1108-5
 *CO2            6.1986-2
 COOH            8.425-12
 *H              2.8428-7
 HCO             2.688-15
 HNCO            1.412-14
 HNO             1.2078-9
 HNO2            4.6013-8
 HNO3            1.465-11
 HO2             3.1310-7
 *H2             6.1477-6
 HCOOH           5.675-13
 H2O             1.1351-1
 H2O2            1.6449-8
 *N              2.806-12
 NCO             2.140-16
 *NH             1.703-13
 NH2             7.149-14
 NH3             5.130-13
 NH2OH           2.029-16
 *NO             1.5547-3
 NO2             3.1921-6
 NO3             1.672-12
 *N2             7.4426-1
 N2O             8.8978-8
 N2O3            1.371-14
 *O              9.4111-6
 *OH             2.9281-4
 *O2             7.8369-2
 O3              2.324-10

  * THERMODYNAMIC PROPERTIES FITTED TO 20000.K









         THERMODYNAMIC EQUILIBRIUM COMBUSTION PROPERTIES AT ASSIGNED

                                   PRESSURES

 CASE =                

             REACTANT                       MOLES         ENERGY      TEMP
                                                         KJ/KG-MOL      K
 FUEL        CH4                          0.8500000    -74533.907    300.000
 OXIDANT     O2                           2.3000000        54.358    300.000
 OXIDANT     N2                           8.6524000        53.881    300.000
 FUEL        C2H6                         0.1000000    -83754.210    300.000
 FUEL        C3H8                         0.0500000   -104543.521    300.000

 O/F=   23.94980  %FUEL=  4.008047  R,EQ.RATIO= 0.700000  PHI,EQ.RATIO= 0.700000

 THERMODYNAMIC PROPERTIES

 P, BAR            1.0000
 T, K             1847.32
 RHO, KG/CU M    1.8277-1
 H, KJ/KG         -161.85
 U, KJ/KG         -709.00
 G, KJ/KG        -17462.5
 S, KJ/(KG)(K)     9.3653

 M, (1/n)          28.072
 (dLV/dLP)t      -1.00010
 (dLV/dLT)p        1.0039
 Cp, KJ/(KG)(K)    1.4768
 GAMMAs            1.2532
 SON VEL,M/SEC      828.1

 MOLE FRACTIONS

 *CO             9.8799-5
 *CO2            7.1537-2
 COOH            8.773-11
 *H              3.5481-6
 HCN             3.899-16
 HCO             1.797-13
 HNCO            3.259-13
 HNO             5.4791-9
 HNO2            5.4231-8
 HNO3            1.049-11
 HO2             6.5556-7
 *H2             4.5133-5
 HCHO,formaldehy 1.871-15
 HCOOH           5.377-12
 H2O             1.3085-1
 H2O2            3.4005-8
 *N              7.128-11
 NCO             1.022-14
 *NH             5.127-12
 NH2             1.810-12
 NH3             6.950-12
 NH2OH           2.420-15
 *NO             2.4582-3
 NO2             2.9531-6
 NO3             1.782-12
 *N2             7.3665-1
 N2O             1.3614-7
 N2O3            1.658-14
 N3              1.353-16
 *O              4.5100-5
 *OH             8.6236-4
 *O2             5.7445-2
 O3              3.916-10

  * THERMODYNAMIC PROPERTIES FITTED TO 20000.K









         THERMODYNAMIC EQUILIBRIUM COMBUSTION PROPERTIES AT ASSIGNED

                                   PRESSURES

 CASE =                

             REACTANT                       MOLES         ENERGY      TEMP
                                                         KJ/KG-MOL      K
 FUEL        CH4                          0.8500000    -74533.907    300.000
 OXIDANT     O2                           2.3000000        54.358    300.000
 OXIDANT     N2                           8.6524000        53.881    300.000
 FUEL        C2H6                         0.1000000    -83754.210    300.000
 FUEL        C3H8                         0.0500000   -104543.521    300.000

 O/F=   20.95608  %FUEL=  4.554547  R,EQ.RATIO= 0.800000  PHI,EQ.RATIO= 0.800000

 THERMODYNAMIC PROPERTIES

 P, BAR            1.0000
 T, K             2006.31
 RHO, KG/CU M    1.6756-1
 H, KJ/KG         -184.18
 U, KJ/KG         -780.97
 G, KJ/KG        -19321.8
 S, KJ/(KG)(K)     9.5387

 M, (1/n)          27.952
 (dLV/dLP)t      -1.00037
 (dLV/dLT)p        1.0125
 Cp, KJ/(KG)(K)    1.5986
 GAMMAs            1.2352
 SON VEL,M/SEC      858.6

 MOLE FRACTIONS

 *CO             5.8093-4
 *CO2            8.0474-2
 COOH            5.596-10
 *H              2.5851-5
 HCN             2.302-14
 HCO             5.215-12
 HNC             1.175-15
 HNCO            4.210-12
 HNO             1.6702-8
 HNO2            5.3432-8
 HNO3            6.415-12
 HO2             9.9885-7
 *H2             2.3115-4
 HCHO,formaldehy 5.551-14
 HCOOH           3.396-11
 H2O             1.4742-1
 H2O2            5.4316-8
 *N              8.428-10
 NCO             2.178-13
 *NH             7.285-11
 NH2             2.382-11
 NH3             6.012-11
 NH2OH           1.732-14
 *NO             3.1521-3
 NO2             2.2819-6
 NO3             1.394-12
 *N2             7.2897-1
 N2H2            5.188-16
 N2O             1.7096-7
 N2O3            1.429-14
 N3              1.305-15
 N3H             1.710-16
 *O              1.3524-4
 *OH             1.8805-3
 *O2             3.7134-2
 O3              4.354-10

  * THERMODYNAMIC PROPERTIES FITTED TO 20000.K









         THERMODYNAMIC EQUILIBRIUM COMBUSTION PROPERTIES AT ASSIGNED

                                   PRESSURES

 CASE =                

             REACTANT                       MOLES         ENERGY      TEMP
                                                         KJ/KG-MOL      K
 FUEL        CH4                          0.8500000    -74533.907    300.000
 OXIDANT     O2                           2.3000000        54.358    300.000
 OXIDANT     N2                           8.6524000        53.881    300.000
 FUEL        C2H6                         0.1000000    -83754.210    300.000
 FUEL        C3H8                         0.0500000   -104543.521    300.000

 O/F=   18.62763  %FUEL=  5.094860  R,EQ.RATIO= 0.900000  PHI,EQ.RATIO= 0.900000

 THERMODYNAMIC PROPERTIES

 P, BAR            1.0000
 T, K             2143.51
 RHO, KG/CU M    1.5600-1
 H, KJ/KG         -206.25
 U, KJ/KG         -847.29
 G, KJ/KG        -20992.4
 S, KJ/(KG)(K)     9.6972

 M, (1/n)          27.802
 (dLV/dLP)t      -1.00117
 (dLV/dLT)p        1.0365
 Cp, KJ/(KG)(K)    1.8429
 GAMMAs            1.2094
 SON VEL,M/SEC      880.5

 MOLE FRACTIONS

 *CN             3.142-15
 *CO             2.5954-3
 *CO2            8.7589-2
 COOH            2.4426-9
 *H              1.2516-4
 HCN             7.604-13
 HCO             8.434-11
 HNC             4.928-14
 HNCO            3.733-11
 HNO             3.5172-8
 HNO2            4.0307-8
 HNO3            2.827-12
 HO2             1.0413-6
 *H2             9.4802-4
 HCHO,formaldehy 1.009-12
 HCOOH           1.630-10
 H2O             1.6279-1
 H2O2            6.4739-8
 *N              5.2908-9
 NCO             2.539-12
 *NH             5.776-10
 NH2             1.970-10
 NH3             4.016-10
 NH2OH           8.390-14
 *NO             3.1459-3
 NO2             1.3004-6
 NO3             6.678-13
 *N2             7.2094-1
 N2H2            4.789-15
 N2O             1.6833-7
 N2O3            7.351-15
 N3              7.024-15
 N3H             1.071-15
 *O              2.5462-4
 *OH             3.0764-3
 *O2             1.8537-2
 O3              2.720-10

  * THERMODYNAMIC PROPERTIES FITTED TO 20000.K









         THERMODYNAMIC EQUILIBRIUM COMBUSTION PROPERTIES AT ASSIGNED

                                   PRESSURES

 CASE =                

             REACTANT                       MOLES         ENERGY      TEMP
                                                         KJ/KG-MOL      K
 FUEL        CH4                          0.8500000    -74533.907    300.000
 OXIDANT     O2                           2.3000000        54.358    300.000
 OXIDANT     N2                           8.6524000        53.881    300.000
 FUEL        C2H6                         0.1000000    -83754.210    300.000
 FUEL        C3H8                         0.0500000   -104543.521    300.000

 O/F=   16.76486  %FUEL=  5.629089  R,EQ.RATIO= 1.000000  PHI,EQ.RATIO= 1.000000

 THERMODYNAMIC PROPERTIES

 P, BAR            1.0000
 T, K             2233.85
 RHO, KG/CU M    1.4840-1
 H, KJ/KG         -228.07
 U, KJ/KG         -901.94
 G, KJ/KG        -22213.1
 S, KJ/(KG)(K)     9.8417

 M, (1/n)          27.562
 (dLV/dLP)t      -1.00259
 (dLV/dLT)p        1.0775
 Cp, KJ/(KG)(K)    2.2208
 GAMMAs            1.1836
 SON VEL,M/SEC      893.1

 MOLE FRACTIONS

 *CN             8.015-14
 *CO             9.7079-3
 *CO2            8.9074-2
 COOH            7.2039-9
 *H              4.0610-4
 HCN             1.889-11
 HCO             8.615-10
 HNC             1.409-12
 HNCO            2.665-10
 HNO             4.3557-8
 HNO2            1.7007-8
 HNO3            5.436-13
 HO2             5.3330-7
 *H2             3.5532-3
 HCHO,formaldehy 1.409-11
 HCOOH           6.497-10
 H2O             1.7570-1
 H2O2            4.5786-8
 *N              1.5636-8
 NCO             1.671-11
 *NH             2.4982-9
 NH2             1.1145-9
 NH3             2.5553-9
 NH2OH           2.769-13
 *NO             1.9596-3
 NO2             3.6418-7
 NO3             1.057-13
 *N2             7.1127-1
 N2H2            2.891-14
 N2O             1.0384-7
 N2O3            1.211-15
 N3              1.884-14
 N3H             4.010-15
 *O              2.3177-4
 *OH             3.2843-3
 *O2             4.8144-3
 O3              5.066-11

  * THERMODYNAMIC PROPERTIES FITTED TO 20000.K









         THERMODYNAMIC EQUILIBRIUM COMBUSTION PROPERTIES AT ASSIGNED

                                   PRESSURES

 CASE =                

             REACTANT                       MOLES         ENERGY      TEMP
                                                         KJ/KG-MOL      K
 FUEL        CH4                          0.8500000    -74533.907    300.000
 OXIDANT     O2                           2.3000000        54.358    300.000
 OXIDANT     N2                           8.6524000        53.881    300.000
 FUEL        C2H6                         0.1000000    -83754.210    300.000
 FUEL        C3H8                         0.0500000   -104543.521    300.000

 O/F=   15.24078  %FUEL=  6.157338  R,EQ.RATIO= 1.100000  PHI,EQ.RATIO= 1.100000

 THERMODYNAMIC PROPERTIES

 P, BAR            1.0000
 T, K             2221.92
 RHO, KG/CU M    1.4679-1
 H, KJ/KG         -249.65
 U, KJ/KG         -930.91
 G, KJ/KG        -22405.5
 S, KJ/(KG)(K)     9.9715

 M, (1/n)          27.118
 (dLV/dLP)t      -1.00115
 (dLV/dLT)p        1.0349
 Cp, KJ/(KG)(K)    1.8570
 GAMMAs            1.2131
 SON VEL,M/SEC      909.1

 MOLE FRACTIONS

 *C              2.100-16
 CH2             3.653-16
 CH3             3.702-15
 CH2OH           8.567-16
 CH3O            1.070-16
 CH4             3.324-15
 CH3OH           1.141-16
 *CN             6.510-13
 *CO             2.7265-2
 *CO2            7.9044-2
 COOH            1.1032-8
 *H              6.9085-4
 HCN             3.043-10
 HCO             4.2075-9
 HNC             2.230-11
 HNCO            1.3472-9
 HNO             2.2169-8
 HNO2            2.6578-9
 HNO3            2.513-14
 HO2             8.2236-8
 *H2             1.1731-2
 HCHO,formaldehy 1.307-10
 HCOOH           1.8926-9
 H2O             1.8196-1
 H2O2            1.3393-8
 *N              1.3465-8
 NCO             4.318-11
 *NH             4.0511-9
 NH2             3.4521-9
 NH3             1.5413-8
 NH2OH           4.859-13
 *NO             5.5083-4
 NO2             3.0338-8
 NO3             2.535-15
 *N2             6.9656-1
 N2H2            8.781-14
 N2O             2.8893-8
 N3              1.606-14
 N3H             6.475-15
 *O              6.2780-5
 *OH             1.7231-3
 *O2             4.0955-4
 O3              1.203-12

  * THERMODYNAMIC PROPERTIES FITTED TO 20000.K









         THERMODYNAMIC EQUILIBRIUM COMBUSTION PROPERTIES AT ASSIGNED

                                   PRESSURES

 CASE =                

             REACTANT                       MOLES         ENERGY      TEMP
                                                         KJ/KG-MOL      K
 FUEL        CH4                          0.8500000    -74533.907    300.000
 OXIDANT     O2                           2.3000000        54.358    300.000
 OXIDANT     N2                           8.6524000        53.881    300.000
 FUEL        C2H6                         0.1000000    -83754.210    300.000
 FUEL        C3H8                         0.0500000   -104543.521    300.000

 O/F=   13.97072  %FUEL=  6.679706  R,EQ.RATIO= 1.200000  PHI,EQ.RATIO= 1.200000

 THERMODYNAMIC PROPERTIES

 P, BAR            1.0000
 T, K             2150.39
 RHO, KG/CU M    1.4862-1
 H, KJ/KG         -270.99
 U, KJ/KG         -943.85
 G, KJ/KG        -21964.4
 S, KJ/(KG)(K)    10.0881

 M, (1/n)          26.572
 (dLV/dLP)t      -1.00042
 (dLV/dLT)p        1.0126
 Cp, KJ/(KG)(K)    1.6634
 GAMMAs            1.2383
 SON VEL,M/SEC      912.8

 MOLE FRACTIONS

 *C              2.746-16
 *CH             1.393-16
 CH2             1.889-15
 CH3             4.383-14
 CH2OH           4.004-15
 CH3O            4.632-16
 CH4             8.582-14
 CH3OH           1.097-15
 *CN             1.402-12
 *CO             4.7099-2
 *CO2            6.5907-2
 COOH            9.8085-9
 CH2CO,ketene    3.916-16
 C2O             2.300-16
 *H              6.7390-4
 HCN             1.6610-9
 HCO             8.1295-9
 HNC             1.088-10
 HNCO            3.3957-9
 HNO             7.8314-9
 HNO2            3.788-10
 HNO3            1.148-15
 HO2             1.0236-8
 *H2             2.5328-2
 HCHO,formaldehy 4.889-10
 HCOOH           3.2886-9
 H2O             1.8117-1
 H2O2            3.2026-9
 *N              5.5967-9
 NCO             4.678-11
 *NH             3.0891-9
 NH2             5.2798-9
 NH3             5.3296-8
 NH2OH           4.858-13
 *NO             1.3524-4
 NO2             2.4120-9
 *N2             6.7895-1
 N2H2            1.253-13
 N2O             7.0205-9
 N3              6.952-15
 N3H             5.341-15
 *O              1.1617-5
 *OH             6.9728-4
 *O2             3.5203-5
 O3              2.312-14

  * THERMODYNAMIC PROPERTIES FITTED TO 20000.K









         THERMODYNAMIC EQUILIBRIUM COMBUSTION PROPERTIES AT ASSIGNED

                                   PRESSURES

 CASE =                

             REACTANT                       MOLES         ENERGY      TEMP
                                                         KJ/KG-MOL      K
 FUEL        CH4                          0.8500000    -74533.907    300.000
 OXIDANT     O2                           2.3000000        54.358    300.000
 OXIDANT     N2                           8.6524000        53.881    300.000
 FUEL        C2H6                         0.1000000    -83754.210    300.000
 FUEL        C3H8                         0.0500000   -104543.521    300.000

 O/F=   12.89605  %FUEL=  7.196290  R,EQ.RATIO= 1.300000  PHI,EQ.RATIO= 1.300000

 THERMODYNAMIC PROPERTIES

 P, BAR            1.0000
 T, K             2072.01
 RHO, KG/CU M    1.5112-1
 H, KJ/KG         -292.09
 U, KJ/KG         -953.82
 G, KJ/KG        -21416.5
 S, KJ/(KG)(K)    10.1951

 M, (1/n)          26.035
 (dLV/dLP)t      -1.00022
 (dLV/dLT)p        1.0065
 Cp, KJ/(KG)(K)    1.6196
 GAMMAs            1.2493
 SON VEL,M/SEC      909.2

 MOLE FRACTIONS

 *C              1.825-16
 *CH             1.547-16
 CH2             4.213-15
 CH3             2.116-13
 CH2OH           9.514-15
 CH3O            1.007-15
 CH4             8.475-13
 CH3OH           4.977-15
 *CN             1.678-12
 *CO             6.3679-2
 *CO2            5.5604-2
 COOH            7.2905-9
 CH2CO,ketene    2.325-15
 C2O             3.985-16
 *H              5.3501-4
 HCN             4.8472-9
 HCO             1.0245-8
 HNC             2.785-10
 HNCO            5.8645-9
 HNO             2.7738-9
 HNO2            6.774-11
 HO2             1.5565-9
 *H2             4.1766-2
 HCHO,formaldehy 1.0946-9
 HCOOH           4.3933-9
 H2O             1.7651-1
 H2O2            8.571-10
 *N              1.9998-9
 NCO             3.666-11
 *NH             1.8392-9
 NH2             5.8197-9
 NH3             1.2520-7
 NH2OH           3.901-13
 *NO             3.8181-5
 NO2             2.657-10
 *N2             6.6157-1
 N2H2            1.277-13
 N2O             1.9641-9
 N3              2.617-15
 N3H             3.505-15
 *O              2.3482-6
 *OH             2.8867-4
 *O2             4.2402-6
 O3              7.046-16

  * THERMODYNAMIC PROPERTIES FITTED TO 20000.K









         THERMODYNAMIC EQUILIBRIUM COMBUSTION PROPERTIES AT ASSIGNED

                                   PRESSURES

 CASE =                

             REACTANT                       MOLES         ENERGY      TEMP
                                                         KJ/KG-MOL      K
 FUEL        CH4                          0.8500000    -74533.907    300.000
 OXIDANT     O2                           2.3000000        54.358    300.000
 OXIDANT     N2                           8.6524000        53.881    300.000
 FUEL        C2H6                         0.1000000    -83754.210    300.000
 FUEL        C3H8                         0.0500000   -104543.521    300.000

 O/F=   11.97490  %FUEL=  7.707187  R,EQ.RATIO= 1.400000  PHI,EQ.RATIO= 1.400000

 THERMODYNAMIC PROPERTIES

 P, BAR            1.0000
 T, K             1994.90
 RHO, KG/CU M    1.5386-1
 H, KJ/KG         -312.96
 U, KJ/KG         -962.92
 G, KJ/KG        -20849.4
 S, KJ/(KG)(K)    10.2945

 M, (1/n)          25.520
 (dLV/dLP)t      -1.00013
 (dLV/dLT)p        1.0038
 Cp, KJ/(KG)(K)    1.6082
 GAMMAs            1.2563
 SON VEL,M/SEC      903.6

 MOLE FRACTIONS

 *CH             1.192-16
 CH2             6.247-15
 CH3             6.532-13
 CH2OH           1.623-14
 CH3O            1.566-15
 CH4             5.140-12
 CH3OH           1.549-14
 *CN             1.527-12
 *CO             7.7233-2
 *CO2            4.7992-2
 COOH            5.0496-9
 C2H2,acetylene  4.752-16
 CH2CO,ketene    8.593-15
 OCCN            1.025-16
 C2O             4.732-16
 *H              3.8467-4
 HCN             1.0429-8
 HCO             1.0588-8
 HCCO            1.320-16
 HNC             5.211-10
 HNCO            8.4806-9
 HNO             9.952-10
 HNO2            1.380-11
 HO2             2.665-10
 *H2             5.9800-2
 HCHO,formaldehy 1.9109-9
 HCOOH           5.2068-9
 H2O             1.6953-1
 H2O2            2.453-10
 *N              6.725-10
 NCO             2.499-11
 *NH             9.751-10
 NH2             5.4426-9
 NH3             2.3983-7
 NH2OH           2.811-13
 *NO             1.1718-5
 NO2             3.526-11
 *N2             6.4493-1
 N2H2            1.104-13
 N2O             5.983-10
 N3              9.327-16
 N3H             2.067-15
 *O              5.0532-7
 *OH             1.2188-4
 *O2             6.1759-7

  * THERMODYNAMIC PROPERTIES FITTED TO 20000.K









         THERMODYNAMIC EQUILIBRIUM COMBUSTION PROPERTIES AT ASSIGNED

                                   PRESSURES

 CASE =                

             REACTANT                       MOLES         ENERGY      TEMP
                                                         KJ/KG-MOL      K
 FUEL        CH4                          0.8500000    -74533.907    300.000
 OXIDANT     O2                           2.3000000        54.358    300.000
 OXIDANT     N2                           8.6524000        53.881    300.000
 FUEL        C2H6                         0.1000000    -83754.210    300.000
 FUEL        C3H8                         0.0500000   -104543.521    300.000

 O/F=   11.17658  %FUEL=  8.212490  R,EQ.RATIO= 1.500000  PHI,EQ.RATIO= 1.500000

 THERMODYNAMIC PROPERTIES

 P, BAR            1.0000
 T, K             1920.18
 RHO, KG/CU M    1.5677-1
 H, KJ/KG         -333.60
 U, KJ/KG         -971.50
 G, KJ/KG        -20279.2
 S, KJ/(KG)(K)    10.3874

 M, (1/n)          25.028
 (dLV/dLP)t      -1.00008
 (dLV/dLT)p        1.0023
 Cp, KJ/(KG)(K)    1.6075
 GAMMAs            1.2619
 SON VEL,M/SEC      897.2

 MOLE FRACTIONS

 CH2             7.269-15
 CH3             1.556-12
 CH2OH           2.283-14
 CH3O            2.002-15
 CH4             2.362-11
 CH3OH           3.885-14
 *CN             1.182-12
 *CO             8.8509-2
 *CO2            4.2357-2
 COOH            3.3652-9
 C2H2,acetylene  1.741-15
 CH2CO,ketene    2.437-14
 OCCN            1.171-16
 C2O             4.530-16
 *H              2.5909-4
 HCN             1.8870-8
 HCO             9.7567-9
 HCCO            1.906-16
 HNC             8.147-10
 HNCO            1.1122-8
 HNO             3.564-10
 HNO2            2.999-12
 HO2             4.824-11
 *H2             7.8608-2
 HCHO,formaldehy 2.8975-9
 HCOOH           5.7901-9
 H2O             1.6116-1
 H2O2            7.224-11
 *N              2.154-10
 NCO             1.571-11
 *NH             4.777-10
 NH2             4.5881-9
 NH3             4.0674-7
 NH2OH           1.886-13
 *NO             3.7449-6
 NO2             5.152-12
 *N2             6.2905-1
 N2H2            8.593-14
 N2O             1.901-10
 N3              3.182-16
 N3H             1.135-15
 *O              1.1137-7
 *OH             5.1621-5
 *O2             9.9345-8

  * THERMODYNAMIC PROPERTIES FITTED TO 20000.K









         THERMODYNAMIC EQUILIBRIUM COMBUSTION PROPERTIES AT ASSIGNED

                                   PRESSURES

 CASE =                

             REACTANT                       MOLES         ENERGY      TEMP
                                                         KJ/KG-MOL      K
 FUEL        CH4                          0.8500000    -74533.907    300.000
 OXIDANT     O2                           2.3000000        54.358    300.000
 OXIDANT     N2                           8.6524000        53.881    300.000
 FUEL        C2H6                         0.1000000    -83754.210    300.000
 FUEL        C3H8                         0.0500000   -104543.521    300.000

 O/F=   10.47804  %FUEL=  8.712289  R,EQ.RATIO= 1.600000  PHI,EQ.RATIO= 1.600000

 THERMODYNAMIC PROPERTIES

 P, BAR            1.0000
 T, K             1847.92
 RHO, KG/CU M    1.5985-1
 H, KJ/KG         -354.02
 U, KJ/KG         -979.62
 G, KJ/KG        -19710.2
 S, KJ/(KG)(K)    10.4746

 M, (1/n)          24.560
 (dLV/dLP)t      -1.00005
 (dLV/dLT)p        1.0014
 Cp, KJ/(KG)(K)    1.6116
 GAMMAs            1.2668
 SON VEL,M/SEC      890.2

 MOLE FRACTIONS

 CH2             7.178-15
 CH3             3.136-12
 CH2OH           2.829-14
 CH3O            2.249-15
 CH4             9.153-11
 CH3OH           8.519-14
 *CN             8.176-13
 *CO             9.8111-2
 *CO2            3.8120-2
 COOH            2.1827-9
 C2H2,acetylene  5.147-15
 CH2CO,ketene    5.873-14
 OCCN            1.171-16
 C2O             3.763-16
 *H              1.6583-4
 HCN             3.0619-8
 HCO             8.3257-9
 HCCO            2.350-16
 HNC             1.1347-9
 HNCO            1.3740-8
 HNO             1.259-10
 HNO2            6.699-13
 HO2             8.887-12
 *H2             9.7649-2
 HCHO,formaldehy 4.0206-9
 HCOOH           6.2013-9
 H2O             1.5201-1
 H2O2            2.137-11
 *N              6.574-11
 NCO             9.318-12
 *NH             2.194-10
 NH2             3.5881-9
 NH3             6.3780-7
 NH2OH           1.199-13
 *NO             1.2137-6
 NO2             7.861-13
 *N2             6.1392-1
 N2H2            6.203-14
 N2O             6.136-11
 N3              1.039-16
 N3H             5.888-16
 *O              2.4477-8
 *OH             2.1669-5
 *O2             1.6739-8

  * THERMODYNAMIC PROPERTIES FITTED TO 20000.K









         THERMODYNAMIC EQUILIBRIUM COMBUSTION PROPERTIES AT ASSIGNED

                                   PRESSURES

 CASE =                

             REACTANT                       MOLES         ENERGY      TEMP
                                                         KJ/KG-MOL      K
 FUEL        CH4                          0.8500000    -74533.907    300.000
 OXIDANT     O2                           2.3000000        54.358    300.000
 OXIDANT     N2                           8.6524000        53.881    300.000
 FUEL        C2H6                         0.1000000    -83754.210    300.000
 FUEL        C3H8                         0.0500000   -104543.521    300.000

 O/F=    9.86168  %FUEL=  9.206675  R,EQ.RATIO= 1.700000  PHI,EQ.RATIO= 1.700000

 THERMODYNAMIC PROPERTIES

 P, BAR            1.0000
 T, K             1778.01
 RHO, KG/CU M    1.6311-1
 H, KJ/KG         -374.21
 U, KJ/KG         -987.31
 G, KJ/KG        -19143.8
 S, KJ/(KG)(K)    10.5565

 M, (1/n)          24.113
 (dLV/dLP)t      -1.00003
 (dLV/dLT)p        1.0009
 Cp, KJ/(KG)(K)    1.6182
 GAMMAs            1.2713
 SON VEL,M/SEC      882.9

 MOLE FRACTIONS

 CH2             6.277-15
 CH3             5.642-12
 CH2OH           3.206-14
 CH3O            2.303-15
 CH4             3.186-10
 CH3OH           1.711-13
 *CN             5.182-13
 *CO             1.0647-1
 *CO2            3.4874-2
 COOH            1.3836-9
 C2H2,acetylene  1.319-14
 CH2CO,ketene    1.273-13
 OCCN            1.065-16
 C2O             2.815-16
 *H              1.0157-4
 HCN             4.6179-8
 HCO             6.7079-9
 HCCO            2.591-16
 HNC             1.4587-9
 HNCO            1.6320-8
 HNO             4.342-11
 HNO2            1.499-13
 HO2             1.623-12
 *H2             1.1658-1
 HCHO,formaldehy 5.2557-9
 HCOOH           6.4853-9
 H2O             1.4249-1
 H2O2            6.251-12
 *N              1.905-11
 NCO             5.272-12
 *NH             9.499-11
 NH2             2.6440-9
 NH3             9.4874-7
 NH2OH           7.279-14
 *NO             3.9190-7
 NO2             1.210-13
 *N2             5.9948-1
 N2H2            4.218-14
 N2O             1.977-11
 N3H             2.904-16
 *O              5.2648-9
 *OH             8.9348-6
 *O2             2.8549-9

  * THERMODYNAMIC PROPERTIES FITTED TO 20000.K









         THERMODYNAMIC EQUILIBRIUM COMBUSTION PROPERTIES AT ASSIGNED

                                   PRESSURES

 CASE =                

             REACTANT                       MOLES         ENERGY      TEMP
                                                         KJ/KG-MOL      K
 FUEL        CH4                          0.8500000    -74533.907    300.000
 OXIDANT     O2                           2.3000000        54.358    300.000
 OXIDANT     N2                           8.6524000        53.881    300.000
 FUEL        C2H6                         0.1000000    -83754.210    300.000
 FUEL        C3H8                         0.0500000   -104543.521    300.000

 O/F=    9.31381  %FUEL=  9.695735  R,EQ.RATIO= 1.800000  PHI,EQ.RATIO= 1.800000

 THERMODYNAMIC PROPERTIES

 P, BAR            1.0000
 T, K             1710.30
 RHO, KG/CU M    1.6656-1
 H, KJ/KG         -394.19
 U, KJ/KG         -994.56
 G, KJ/KG        -18580.6
 S, KJ/(KG)(K)    10.6335

 M, (1/n)          23.686
 (dLV/dLP)t      -1.00002
 (dLV/dLT)p        1.0005
 Cp, KJ/(KG)(K)    1.6263
 GAMMAs            1.2756
 SON VEL,M/SEC      875.1

 MOLE FRACTIONS

 CH2             4.984-15
 CH3             9.359-12
 CH2OH           3.394-14
 CH3O            2.196-15
 CH4             1.0365-9
 CH3OH           3.238-13
 *CN             3.051-13
 *CO             1.1387-1
 *CO2            3.2343-2
 COOH            8.580-10
 C2H2,acetylene  3.065-14
 CH2CO,ketene    2.572-13
 CH3CN           1.365-16
 C2H4            1.890-16
 C2N2            1.236-16
 C2O             1.937-16
 *H              5.9730-5
 HCN             6.6173-8
 HCO             5.1579-9
 HCCO            2.626-16
 HNC             1.7683-9
 HNCO            1.8866-8
 HNO             1.452-11
 HNO2            3.301-14
 HO2             2.885-13
 *H2             1.3520-1
 HCHO,formaldehy 6.5860-9
 HCOOH           6.6752-9
 H2O             1.3282-1
 H2O2            1.785-12
 *N              5.216-12
 NCO             2.858-12
 *NH             3.887-11
 NH2             1.8524-9
 NH3             1.3609-6
 NH2OH           4.241-14
 *NO             1.2446-7
 NO2             1.835-14
 *N2             5.8570-1
 N2H2            2.724-14
 N2O             6.275-12
 N3H             1.365-16
 *O              1.0925-9
 *OH             3.5936-6
 *O2             4.812-10

  * THERMODYNAMIC PROPERTIES FITTED TO 20000.K









         THERMODYNAMIC EQUILIBRIUM COMBUSTION PROPERTIES AT ASSIGNED

                                   PRESSURES

 CASE =                

             REACTANT                       MOLES         ENERGY      TEMP
                                                         KJ/KG-MOL      K
 FUEL        CH4                          0.8500000    -74533.907    300.000
 OXIDANT     O2                           2.3000000        54.358    300.000
 OXIDANT     N2                           8.6524000        53.881    300.000
 FUEL        C2H6                         0.1000000    -83754.210    300.000
 FUEL        C3H8                         0.0500000   -104543.521    300.000

 O/F=    8.82361  %FUEL= 10.179555  R,EQ.RATIO= 1.900000  PHI,EQ.RATIO= 1.900000

 THERMODYNAMIC PROPERTIES

 P, BAR            1.0000
 T, K             1644.65
 RHO, KG/CU M    1.7023-1
 H, KJ/KG         -413.96
 U, KJ/KG        -1001.40
 G, KJ/KG        -18021.3
 S, KJ/(KG)(K)    10.7058

 M, (1/n)          23.278
 (dLV/dLP)t      -1.00001
 (dLV/dLT)p        1.0003
 Cp, KJ/(KG)(K)    1.6354
 GAMMAs            1.2796
 SON VEL,M/SEC      867.0

 MOLE FRACTIONS

 CH2             3.650-15
 CH3             1.462-11
 CH2OH           3.405-14
 CH3O            1.977-15
 CH4             3.2382-9
 CH3OH           5.892-13
 *CN             1.682-13
 *CO             1.2053-1
 *CO2            3.0340-2
 COOH            5.203-10
 C2H2,acetylene  6.644-14
 CH2CO,ketene    4.950-13
 CH3CN           4.984-16
 C2H4            7.853-16
 C2N2            1.790-16
 C2O             1.241-16
 *H              3.3772-5
 HCN             9.1398-8
 HCO             3.8084-9
 HCCO            2.488-16
 HNC             2.0494-9
 HNCO            2.1391-8
 HNO             4.676-12
 HNO2            7.053-15
 HO2             4.917-14
 *H2             1.5340-1
 HCHO,formaldehy 8.0008-9
 HCOOH           6.7943-9
 H2O             1.2317-1
 H2O2            4.928-13
 *N              1.344-12
 NCO             1.487-12
 *NH             1.503-11
 NH2             1.2404-9
 NH3             1.9037-6
 NH2OH           2.376-14
 *NO             3.8489-8
 NO2             2.689-15
 *N2             5.7253-1
 N2H2            1.680-14
 N2O             1.944-12
 *O              2.162-10
 *OH             1.4014-6
 *O2             7.868-11

  * THERMODYNAMIC PROPERTIES FITTED TO 20000.K









         THERMODYNAMIC EQUILIBRIUM COMBUSTION PROPERTIES AT ASSIGNED

                                   PRESSURES

 CASE =                

             REACTANT                       MOLES         ENERGY      TEMP
                                                         KJ/KG-MOL      K
 FUEL        CH4                          0.8500000    -74533.907    300.000
 OXIDANT     O2                           2.3000000        54.358    300.000
 OXIDANT     N2                           8.6524000        53.881    300.000
 FUEL        C2H6                         0.1000000    -83754.210    300.000
 FUEL        C3H8                         0.0500000   -104543.521    300.000

 O/F=    8.38243  %FUEL= 10.658218  R,EQ.RATIO= 2.000000  PHI,EQ.RATIO= 2.000000

 THERMODYNAMIC PROPERTIES

 P, BAR            1.0000
 T, K             1580.94
 RHO, KG/CU M    1.7412-1
 H, KJ/KG         -433.51
 U, KJ/KG        -1007.82
 G, KJ/KG        -17466.1
 S, KJ/(KG)(K)    10.7737

 M, (1/n)          22.888
 (dLV/dLP)t      -1.00001
 (dLV/dLT)p        1.0002
 Cp, KJ/(KG)(K)    1.6451
 GAMMAs            1.2835
 SON VEL,M/SEC      858.6

 MOLE FRACTIONS

 CH2             2.488-15
 CH3             2.183-11
 CH2OH           3.266-14
 CH3O            1.695-15
 CH4             9.9084-9
 CH3OH           1.044-12
 *CN             8.719-14
 *CO             1.2658-1
 *CO2            2.8734-2
 COOH            3.080-10
 C2H2,acetylene  1.371-13
 CH2CO,ketene    9.222-13
 CH3CN           1.761-15
 C2H4            3.136-15
 CH3CHO,ethanal  1.600-16
 C2N2            2.483-16
 C3O2            1.197-16
 *H              1.8360-5
 HCN             1.2289-7
 HCO             2.7095-9
 HCCO            2.228-16
 HNC             2.2918-9
 HNCO            2.3911-8
 HNO             1.441-12
 HNO2            1.445-15
 HO2             7.930-15
 *H2             1.7109-1
 HCHO,formaldehy 9.4941-9
 HCOOH           6.8594-9
 H2O             1.1364-1
 H2O2            1.304-13
 *N              3.242-13
 NCO             7.425-13
 *NH             5.482-12
 NH2             7.960-10
 NH3             2.6173-6
 NH2OH           1.281-14
 *NO             1.1491-8
 NO2             3.751-16
 *N2             5.5993-1
 N2H2            9.919-15
 N2O             5.823-13
 *O              4.038-11
 *OH             5.2695-7
 *O2             1.230-11

  * THERMODYNAMIC PROPERTIES FITTED TO 20000.K



