
 *******************************************************************************

         NASA-GLENN CHEMICAL EQUILIBRIUM PROGRAM CEA2, MAY 21, 2004
                   BY  BONNIE MCBRIDE AND SANFORD GORDON
      REFS: NASA RP-1311, PART I, 1994 AND NASA RP-1311, PART II, 1996

 *******************************************************************************



 problem    phi,eq.ratio=0.5,0.6,0.7,0.8,0.9,1,1.1,1.2,1.3,1.4,1.5,1.6,1.7,1.8,1.
 9,2,
       hp   p,bar=1,  t,k=3800
 react
   fuel=CO moles=0.5  t,k=300
   oxid=O2 moles=1  t,k=300
   oxid=N2 moles=3.7619  t,k=300
   fuel=H2 moles=0.5  t,k=300
 output  short   trace=1e-16
 end




         THERMODYNAMIC EQUILIBRIUM COMBUSTION PROPERTIES AT ASSIGNED

                                   PRESSURES

 CASE =                

             REACTANT                       MOLES         ENERGY      TEMP
                                                         KJ/KG-MOL      K
 FUEL        CO                           0.5000000   -110481.283    300.000
 OXIDANT     O2                           1.0000000        54.358    300.000
 OXIDANT     N2                           3.7619000        53.881    300.000
 FUEL        H2                           0.5000000        53.359    300.000

 O/F=    9.15090  %FUEL=  9.851341  R,EQ.RATIO= 0.600000  PHI,EQ.RATIO= 0.500000

 THERMODYNAMIC PROPERTIES

 P, BAR            1.0000
 T, K             1704.32
 RHO, KG/CU M    2.0436-1
 H, KJ/KG         -360.62
 U, KJ/KG         -849.95
 G, KJ/KG        -15762.1
 S, KJ/(KG)(K)     9.0367

 M, (1/n)          28.959
 (dLV/dLP)t      -1.00003
 (dLV/dLT)p        1.0014
 Cp, KJ/(KG)(K)    1.3912
 GAMMAs            1.2609
 SON VEL,M/SEC      785.5

 MOLE FRACTIONS

 *CO             2.2335-5
 *CO2            9.4990-2
 COOH            1.671-11
 *H              3.9150-7
 HCO             6.755-15
 HNCO            2.835-14
 HNO             1.5150-9
 HNO2            5.0279-8
 HNO3            1.641-11
 HO2             3.8983-7
 *H2             6.4927-6
 HCOOH           9.377-13
 H2O             9.4833-2
 H2O2            1.7338-8
 *N              5.117-12
 NCO             5.821-16
 *NH             2.723-13
 NH2             9.386-14
 NH3             5.070-13
 NH2OH           2.206-16
 *NO             1.8777-3
 NO2             3.9238-6
 NO3             2.382-12
 *N2             7.1392-1
 N2O             1.0463-7
 N2O3            1.962-14
 *O              1.4340-5
 *OH             3.4503-4
 *O2             9.3991-2
 O3              3.687-10

  * THERMODYNAMIC PROPERTIES FITTED TO 20000.K









         THERMODYNAMIC EQUILIBRIUM COMBUSTION PROPERTIES AT ASSIGNED

                                   PRESSURES

 CASE =                

             REACTANT                       MOLES         ENERGY      TEMP
                                                         KJ/KG-MOL      K
 FUEL        CO                           0.5000000   -110481.283    300.000
 OXIDANT     O2                           1.0000000        54.358    300.000
 OXIDANT     N2                           3.7619000        53.881    300.000
 FUEL        H2                           0.5000000        53.359    300.000

 O/F=    7.62575  %FUEL= 11.593192  R,EQ.RATIO= 0.692308  PHI,EQ.RATIO= 0.600000

 THERMODYNAMIC PROPERTIES

 P, BAR            1.0000
 T, K             1901.25
 RHO, KG/CU M    1.8325-1
 H, KJ/KG         -424.71
 U, KJ/KG         -970.41
 G, KJ/KG        -17953.7
 S, KJ/(KG)(K)     9.2197

 M, (1/n)          28.968
 (dLV/dLP)t      -1.00017
 (dLV/dLT)p        1.0061
 Cp, KJ/(KG)(K)    1.4870
 GAMMAs            1.2426
 SON VEL,M/SEC      823.4

 MOLE FRACTIONS

 *CO             2.2906-4
 *CO2            1.1162-1
 COOH            2.084-10
 *H              5.9061-6
 HCN             1.354-15
 HCO             6.033-13
 HNCO            7.994-13
 HNO             7.9318-9
 HNO2            6.3785-8
 HNO3            1.265-11
 HO2             9.2342-7
 *H2             5.4190-5
 HCHO,formaldehy 5.179-15
 HCOOH           1.040-11
 H2O             1.1122-1
 H2O2            3.9846-8
 *N              1.684-10
 NCO             3.667-14
 *NH             1.059-11
 NH2             2.974-12
 NH3             8.039-12
 NH2OH           3.180-15
 *NO             3.1930-3
 NO2             3.8934-6
 NO3             2.870-12
 *N2             6.9967-1
 N2O             1.7127-7
 N2O3            2.700-14
 N3              2.833-16
 *O              8.1301-5
 *OH             1.1350-3
 *O2             7.2783-2
 O3              7.326-10

  * THERMODYNAMIC PROPERTIES FITTED TO 20000.K









         THERMODYNAMIC EQUILIBRIUM COMBUSTION PROPERTIES AT ASSIGNED

                                   PRESSURES

 CASE =                

             REACTANT                       MOLES         ENERGY      TEMP
                                                         KJ/KG-MOL      K
 FUEL        CO                           0.5000000   -110481.283    300.000
 OXIDANT     O2                           1.0000000        54.358    300.000
 OXIDANT     N2                           3.7619000        53.881    300.000
 FUEL        H2                           0.5000000        53.359    300.000

 O/F=    6.53636  %FUEL= 13.269007  R,EQ.RATIO= 0.777778  PHI,EQ.RATIO= 0.700000

 THERMODYNAMIC PROPERTIES

 P, BAR            1.0000
 T, K             2072.55
 RHO, KG/CU M    1.6803-1
 H, KJ/KG         -486.38
 U, KJ/KG        -1081.52
 G, KJ/KG        -19924.5
 S, KJ/(KG)(K)     9.3788

 M, (1/n)          28.955
 (dLV/dLP)t      -1.00064
 (dLV/dLT)p        1.0210
 Cp, KJ/(KG)(K)    1.6605
 GAMMAs            1.2190
 SON VEL,M/SEC      851.7

 MOLE FRACTIONS

 *CN             3.170-16
 *CO             1.3067-3
 *CO2            1.2665-1
 COOH            1.3370-9
 *H              4.3107-5
 HCN             7.320-14
 HCO             1.692-11
 HNC             4.210-15
 HNCO            9.835-12
 HNO             2.5311-8
 HNO2            6.8721-8
 HNO3            8.935-12
 HO2             1.5531-6
 *H2             2.6929-4
 HCHO,formaldehy 1.448-13
 HCOOH           6.453-11
 H2O             1.2637-1
 H2O2            6.8516-8
 *N              2.0505-9
 NCO             7.686-13
 *NH             1.511-10
 NH2             3.830-11
 NH3             6.592-11
 NH2OH           2.290-14
 *NO             4.3383-3
 NO2             3.3628-6
 NO3             2.668-12
 *N2             6.8548-1
 N2H2            8.562-16
 N2O             2.2716-7
 N2O3            2.755-14
 N3              2.779-15
 N3H             2.982-16
 *O              2.6276-4
 *OH             2.5851-3
 *O2             5.2686-2
 O3              9.781-10

  * THERMODYNAMIC PROPERTIES FITTED TO 20000.K









         THERMODYNAMIC EQUILIBRIUM COMBUSTION PROPERTIES AT ASSIGNED

                                   PRESSURES

 CASE =                

             REACTANT                       MOLES         ENERGY      TEMP
                                                         KJ/KG-MOL      K
 FUEL        CO                           0.5000000   -110481.283    300.000
 OXIDANT     O2                           1.0000000        54.358    300.000
 OXIDANT     N2                           3.7619000        53.881    300.000
 FUEL        H2                           0.5000000        53.359    300.000

 O/F=    5.71931  %FUEL= 14.882471  R,EQ.RATIO= 0.857143  PHI,EQ.RATIO= 0.800000

 THERMODYNAMIC PROPERTIES

 P, BAR            1.0000
 T, K             2210.77
 RHO, KG/CU M    1.5719-1
 H, KJ/KG         -545.75
 U, KJ/KG        -1181.94
 G, KJ/KG        -21591.4
 S, KJ/(KG)(K)     9.5196

 M, (1/n)          28.893
 (dLV/dLP)t      -1.00187
 (dLV/dLT)p        1.0565
 Cp, KJ/(KG)(K)    1.9860
 GAMMAs            1.1903
 SON VEL,M/SEC      870.2

 MOLE FRACTIONS

 *CN             1.047-14
 *CO             4.7961-3
 *CO2            1.3841-1
 COOH            5.1338-9
 *H              1.8112-4
 HCN             1.483-12
 HCO             1.981-10
 HNC             1.069-13
 HNCO            6.494-11
 HNO             5.4473-8
 HNO2            6.3272-8
 HNO3            5.597-12
 HO2             1.9504-6
 *H2             9.1300-4
 HCHO,formaldehy 1.790-12
 HCOOH           2.565-10
 H2O             1.4001-1
 H2O2            9.2289-8
 *N              1.1591-8
 NCO             6.960-12
 *NH             1.0062-9
 NH2             2.508-10
 NH3             3.334-10
 NH2OH           9.681-14
 *NO             4.8674-3
 NO2             2.5120-6
 NO3             1.914-12
 *N2             6.7099-1
 N2H2            6.205-15
 N2O             2.5066-7
 N2O3            2.104-14
 N3              1.345-14
 N3H             1.574-15
 *O              5.4045-4
 *OH             4.3954-3
 *O2             3.4895-2
 O3              9.081-10

  * THERMODYNAMIC PROPERTIES FITTED TO 20000.K









         THERMODYNAMIC EQUILIBRIUM COMBUSTION PROPERTIES AT ASSIGNED

                                   PRESSURES

 CASE =                

             REACTANT                       MOLES         ENERGY      TEMP
                                                         KJ/KG-MOL      K
 FUEL        CO                           0.5000000   -110481.283    300.000
 OXIDANT     O2                           1.0000000        54.358    300.000
 OXIDANT     N2                           3.7619000        53.881    300.000
 FUEL        H2                           0.5000000        53.359    300.000

 O/F=    5.08383  %FUEL= 16.437001  R,EQ.RATIO= 0.931034  PHI,EQ.RATIO= 0.900000

 THERMODYNAMIC PROPERTIES

 P, BAR            1.0000
 T, K             2309.17
 RHO, KG/CU M    1.4980-1
 H, KJ/KG         -602.95
 U, KJ/KG        -1270.52
 G, KJ/KG        -22877.2
 S, KJ/(KG)(K)     9.6460

 M, (1/n)          28.760
 (dLV/dLP)t      -1.00390
 (dLV/dLT)p        1.1126
 Cp, KJ/(KG)(K)    2.4544
 GAMMAs            1.1654
 SON VEL,M/SEC      882.0

 MOLE FRACTIONS

 *CN             1.243-13
 *CO             1.2359-2
 *CO2            1.4508-1
 COOH            1.2907-8
 *H              4.8743-4
 HCN             1.385-11
 HCO             1.1516-9
 HNC             1.152-12
 HNCO            2.609-10
 HNO             8.3951-8
 HNO2            4.9872-8
 HNO3            3.041-12
 HO2             1.8813-6
 *H2             2.2998-3
 HCHO,formaldehy 1.159-11
 HCOOH           7.097-10
 H2O             1.5198-1
 H2O2            1.0006-7
 *N              3.4922-8
 NCO             3.184-11
 *NH             3.6141-9
 NH2             9.578-10
 NH3             1.1607-9
 NH2OH           2.654-13
 *NO             4.5928-3
 NO2             1.6112-6
 NO3             1.054-12
 *N2             6.5579-1
 N2H2            2.527-14
 N2O             2.3337-7
 N2O3            1.201-14
 N3              3.639-14
 N3H             4.837-15
 *O              7.5504-4
 *OH             5.8378-3
 *O2             2.0808-2
 O3              5.943-10

  * THERMODYNAMIC PROPERTIES FITTED TO 20000.K









         THERMODYNAMIC EQUILIBRIUM COMBUSTION PROPERTIES AT ASSIGNED

                                   PRESSURES

 CASE =                

             REACTANT                       MOLES         ENERGY      TEMP
                                                         KJ/KG-MOL      K
 FUEL        CO                           0.5000000   -110481.283    300.000
 OXIDANT     O2                           1.0000000        54.358    300.000
 OXIDANT     N2                           3.7619000        53.881    300.000
 FUEL        H2                           0.5000000        53.359    300.000

 O/F=    4.57545  %FUEL= 17.935768  R,EQ.RATIO= 1.000000  PHI,EQ.RATIO= 1.000000

 THERMODYNAMIC PROPERTIES

 P, BAR            1.0000
 T, K             2367.87
 RHO, KG/CU M    1.4503-1
 H, KJ/KG         -658.10
 U, KJ/KG        -1347.59
 G, KJ/KG        -23770.8
 S, KJ/(KG)(K)     9.7610

 M, (1/n)          28.554
 (dLV/dLP)t      -1.00560
 (dLV/dLT)p        1.1578
 Cp, KJ/(KG)(K)    2.8257
 GAMMAs            1.1528
 SON VEL,M/SEC      891.5

 MOLE FRACTIONS

 *C              5.932-16
 CH2             1.340-16
 CH3             3.770-16
 CH2OH           2.603-16
 CH4             1.033-16
 *CN             6.825-13
 *CO             2.4466-2
 *CO2            1.4610-1
 COOH            2.3328-8
 *H              9.3308-4
 HCN             7.339-11
 HCO             3.9549-9
 HNC             6.613-12
 HNCO            7.253-10
 HNO             9.8330-8
 HNO2            3.3723-8
 HNO3            1.403-12
 HO2             1.4316-6
 *H2             4.6769-3
 HCHO,formaldehy 4.661-11
 HCOOH           1.4927-9
 H2O             1.6226-1
 H2O2            8.9600-8
 *N              6.4179-8
 NCO             8.630-11
 *NH             8.0746-9
 NH2             2.4418-9
 NH3             3.0990-9
 NH2OH           5.209-13
 *NO             3.7088-3
 NO2             8.8074-7
 NO3             4.446-13
 *N2             6.3979-1
 N2H2            6.645-14
 N2O             1.8606-7
 N2O3            5.138-15
 N3              6.227-14
 N3H             9.797-15
 *O              7.6337-4
 *OH             6.3248-3
 *O2             1.0985-2
 O3              2.778-10

  * THERMODYNAMIC PROPERTIES FITTED TO 20000.K









         THERMODYNAMIC EQUILIBRIUM COMBUSTION PROPERTIES AT ASSIGNED

                                   PRESSURES

 CASE =                

             REACTANT                       MOLES         ENERGY      TEMP
                                                         KJ/KG-MOL      K
 FUEL        CO                           0.5000000   -110481.283    300.000
 OXIDANT     O2                           1.0000000        54.358    300.000
 OXIDANT     N2                           3.7619000        53.881    300.000
 FUEL        H2                           0.5000000        53.359    300.000

 O/F=    4.15950  %FUEL= 19.381719  R,EQ.RATIO= 1.064516  PHI,EQ.RATIO= 1.100000

 THERMODYNAMIC PROPERTIES

 P, BAR            1.0000
 T, K             2391.50
 RHO, KG/CU M    1.4224-1
 H, KJ/KG         -711.30
 U, KJ/KG        -1414.34
 G, KJ/KG        -24307.2
 S, KJ/(KG)(K)     9.8666

 M, (1/n)          28.283
 (dLV/dLP)t      -1.00541
 (dLV/dLT)p        1.1513
 Cp, KJ/(KG)(K)    2.7880
 GAMMAs            1.1552
 SON VEL,M/SEC      901.2

 MOLE FRACTIONS

 *C              2.202-15
 *CH             3.167-16
 CH2             7.413-16
 CH3             2.447-15
 CH2OH           1.053-15
 CH3O            1.553-16
 CH4             7.990-16
 *CN             2.168-12
 *CO             4.0395-2
 *CO2            1.4217-1
 COOH            3.2968-8
 C2O             2.763-16
 *H              1.3895-3
 HCN             2.660-10
 HCO             9.3587-9
 HNC             2.473-11
 HNCO            1.5678-9
 HNO             9.1953-8
 HNO2            1.9520-8
 HNO3            5.365-13
 HO2             8.7490-7
 *H2             8.2487-3
 HCHO,formaldehy 1.357-10
 HCOOH           2.5889-9
 H2O             1.7073-1
 H2O2            6.7488-8
 *N              8.0629-8
 NCO             1.597-10
 *NH             1.2661-8
 NH2             4.6630-9
 NH3             6.9708-9
 NH2OH           7.969-13
 *NO             2.5938-3
 NO2             4.0568-7
 NO3             1.419-13
 *N2             6.2306-1
 N2H2            1.274-13
 N2O             1.2841-7
 N2O3            1.635-15
 N3              7.481-14
 N3H             1.454-14
 *O              5.8759-4
 *OH             5.7854-3
 *O2             5.0338-3
 O3              9.309-11

  * THERMODYNAMIC PROPERTIES FITTED TO 20000.K









         THERMODYNAMIC EQUILIBRIUM COMBUSTION PROPERTIES AT ASSIGNED

                                   PRESSURES

 CASE =                

             REACTANT                       MOLES         ENERGY      TEMP
                                                         KJ/KG-MOL      K
 FUEL        CO                           0.5000000   -110481.283    300.000
 OXIDANT     O2                           1.0000000        54.358    300.000
 OXIDANT     N2                           3.7619000        53.881    300.000
 FUEL        H2                           0.5000000        53.359    300.000

 O/F=    3.81288  %FUEL= 20.777597  R,EQ.RATIO= 1.125000  PHI,EQ.RATIO= 1.200000

 THERMODYNAMIC PROPERTIES

 P, BAR            1.0000
 T, K             2386.36
 RHO, KG/CU M    1.4094-1
 H, KJ/KG         -762.66
 U, KJ/KG        -1472.18
 G, KJ/KG        -24540.4
 S, KJ/(KG)(K)     9.9640

 M, (1/n)          27.965
 (dLV/dLP)t      -1.00380
 (dLV/dLT)p        1.1066
 Cp, KJ/(KG)(K)    2.4430
 GAMMAs            1.1699
 SON VEL,M/SEC      911.1

 MOLE FRACTIONS

 *C              4.627-15
 *CH             8.523-16
 CH2             2.580-15
 CH3             1.105-14
 CH2OH           3.061-15
 CH3O            4.494-16
 CH4             4.670-15
 CH3OH           2.155-16
 *CN             4.632-12
 *CO             5.8765-2
 *CO2            1.3475-1
 COOH            3.8732-8
 CH2CO,ketene    1.144-16
 C2O             8.733-16
 *H              1.7131-3
 HCN             7.423-10
 HCO             1.6925-8
 HNC             6.853-11
 HNCO            2.8430-9
 HNO             7.1635-8
 HNO2            9.8030-9
 HNO3            1.713-13
 HO2             4.4165-7
 *H2             1.3174-2
 HCHO,formaldehy 3.153-10
 HCOOH           3.9099-9
 H2O             1.7718-1
 H2O2            4.3753-8
 *N              7.5469-8
 NCO             2.229-10
 *NH             1.5179-8
 NH2             7.1979-9
 NH3             1.3955-8
 NH2OH           1.008-12
 *NO             1.6013-3
 NO2             1.5930-7
 NO3             3.506-14
 *N2             6.0584-1
 N2H2            1.932-13
 N2O             7.8170-8
 N2O3            3.974-16
 N3              6.836-14
 N3H             1.705-14
 *O              3.6137-4
 *OH             4.6057-3
 *O2             2.0125-3
 O3              2.314-11

  * THERMODYNAMIC PROPERTIES FITTED TO 20000.K









         THERMODYNAMIC EQUILIBRIUM COMBUSTION PROPERTIES AT ASSIGNED

                                   PRESSURES

 CASE =                

             REACTANT                       MOLES         ENERGY      TEMP
                                                         KJ/KG-MOL      K
 FUEL        CO                           0.5000000   -110481.283    300.000
 OXIDANT     O2                           1.0000000        54.358    300.000
 OXIDANT     N2                           3.7619000        53.881    300.000
 FUEL        H2                           0.5000000        53.359    300.000

 O/F=    3.51958  %FUEL= 22.125960  R,EQ.RATIO= 1.181818  PHI,EQ.RATIO= 1.300000

 THERMODYNAMIC PROPERTIES

 P, BAR            1.0000
 T, K             2361.22
 RHO, KG/CU M    1.4068-1
 H, KJ/KG         -812.28
 U, KJ/KG        -1523.09
 G, KJ/KG        -24553.1
 S, KJ/(KG)(K)    10.0544

 M, (1/n)          27.620
 (dLV/dLP)t      -1.00235
 (dLV/dLT)p        1.0663
 Cp, KJ/(KG)(K)    2.1250
 GAMMAs            1.1886
 SON VEL,M/SEC      919.2

 MOLE FRACTIONS

 *C              6.444-15
 *CH             1.540-15
 CH2             6.344-15
 CH3             3.766-14
 CH2OH           6.920-15
 CH3O            9.922-16
 CH4             2.170-14
 CH3OH           6.536-16
 *CN             7.406-12
 *CO             7.7850-2
 *CO2            1.2568-1
 COOH            3.9865-8
 CH2CO,ketene    4.419-16
 OCCN            1.846-16
 C2O             1.902-15
 *H              1.8404-3
 HCN             1.6946-9
 HCO             2.5094-8
 HCCO            1.012-16
 HNC             1.513-10
 HNCO            4.5120-9
 HNO             4.9203-8
 HNO2            4.4987-9
 HNO3            4.899-14
 HO2             1.9681-7
 *H2             1.9421-2
 HCHO,formaldehy 6.159-10
 HCOOH           5.3162-9
 H2O             1.8152-1
 H2O2            2.5640-8
 *N              5.7465-8
 NCO             2.540-10
 *NH             1.4996-8
 NH2             9.4715-9
 NH3             2.5347-8
 NH2OH           1.106-12
 *NO             9.1245-4
 NO2             5.6757-8
 NO3             7.397-15
 *N2             5.8851-1
 N2H2            2.460-13
 N2O             4.3903-8
 N3              5.155-14
 N3H             1.687-14
 *O              1.9127-4
 *OH             3.3331-3
 *O2             7.4197-4
 O3              4.770-12

  * THERMODYNAMIC PROPERTIES FITTED TO 20000.K









         THERMODYNAMIC EQUILIBRIUM COMBUSTION PROPERTIES AT ASSIGNED

                                   PRESSURES

 CASE =                

             REACTANT                       MOLES         ENERGY      TEMP
                                                         KJ/KG-MOL      K
 FUEL        CO                           0.5000000   -110481.283    300.000
 OXIDANT     O2                           1.0000000        54.358    300.000
 OXIDANT     N2                           3.7619000        53.881    300.000
 FUEL        H2                           0.5000000        53.359    300.000

 O/F=    3.26818  %FUEL= 23.429193  R,EQ.RATIO= 1.235294  PHI,EQ.RATIO= 1.400000

 THERMODYNAMIC PROPERTIES

 P, BAR            1.0000
 T, K             2325.40
 RHO, KG/CU M    1.4104-1
 H, KJ/KG         -860.23
 U, KJ/KG        -1569.25
 G, KJ/KG        -24436.5
 S, KJ/(KG)(K)    10.1386

 M, (1/n)          27.269
 (dLV/dLP)t      -1.00150
 (dLV/dLT)p        1.0421
 Cp, KJ/(KG)(K)    1.9335
 GAMMAs            1.2044
 SON VEL,M/SEC      924.1

 MOLE FRACTIONS

 *C              6.838-15
 *CH             2.114-15
 CH2             1.207-14
 CH3             1.020-13
 CH2OH           1.289-14
 CH3O            1.786-15
 CH4             8.179-14
 CH3OH           1.654-15
 *CN             9.681-12
 *CO             9.6233-2
 *CO2            1.1655-1
 COOH            3.7724-8
 CH2CO,ketene    1.334-15
 OCCN            3.241-16
 C2O             3.179-15
 *H              1.8058-3
 HCN             3.2957-9
 HCO             3.2314-8
 HCCO            2.175-16
 HNC             2.804-10
 HNCO            6.4616-9
 HNO             3.1664-8
 HNO2            2.0112-9
 HNO3            1.374-14
 HO2             8.3728-8
 *H2             2.6746-2
 HCHO,formaldehy 1.0491-9
 HCOOH           6.6802-9
 H2O             1.8398-1
 H2O2            1.4386-8
 *N              3.8826-8
 NCO             2.537-10
 *NH             1.3101-8
 NH2             1.1120-8
 NH3             4.2130-8
 NH2OH           1.102-12
 *NO             5.0558-4
 NO2             1.9831-8
 NO3             1.506-15
 *N2             5.7151-1
 N2H2            2.772-13
 N2O             2.3977-8
 N3              3.480-14
 N3H             1.497-14
 *O              9.4517-5
 *OH             2.2996-3
 *O2             2.7074-4
 O3              9.324-13

  * THERMODYNAMIC PROPERTIES FITTED TO 20000.K









         THERMODYNAMIC EQUILIBRIUM COMBUSTION PROPERTIES AT ASSIGNED

                                   PRESSURES

 CASE =                

             REACTANT                       MOLES         ENERGY      TEMP
                                                         KJ/KG-MOL      K
 FUEL        CO                           0.5000000   -110481.283    300.000
 OXIDANT     O2                           1.0000000        54.358    300.000
 OXIDANT     N2                           3.7619000        53.881    300.000
 FUEL        H2                           0.5000000        53.359    300.000

 O/F=    3.05030  %FUEL= 24.689524  R,EQ.RATIO= 1.285714  PHI,EQ.RATIO= 1.500000

 THERMODYNAMIC PROPERTIES

 P, BAR            1.0000
 T, K             2285.24
 RHO, KG/CU M    1.4171-1
 H, KJ/KG         -906.61
 U, KJ/KG        -1612.26
 G, KJ/KG        -24255.7
 S, KJ/(KG)(K)    10.2173

 M, (1/n)          26.926
 (dLV/dLP)t      -1.00102
 (dLV/dLT)p        1.0285
 Cp, KJ/(KG)(K)    1.8290
 GAMMAs            1.2159
 SON VEL,M/SEC      926.3

 MOLE FRACTIONS

 *C              6.129-15
 *CH             2.421-15
 CH2             1.913-14
 CH3             2.309-13
 CH2OH           2.081-14
 CH3O            2.772-15
 CH4             2.576-13
 CH3OH           3.610-15
 *CN             1.107-11
 *CO             1.1323-1
 *CO2            1.0818-1
 COOH            3.3995-8
 C2H2,acetylene  1.224-16
 CH2CO,ketene    3.324-15
 OCCN            4.803-16
 C2O             4.440-15
 *H              1.6757-3
 HCN             5.6650-9
 HCO             3.7810-8
 HCCO            3.858-16
 HNC             4.556-10
 HNCO            8.5729-9
 HNO             1.9886-8
 HNO2            9.112-10
 HNO3            3.995-15
 HO2             3.5726-8
 *H2             3.4851-2
 HCHO,formaldehy 1.6098-9
 HCOOH           7.9308-9
 H2O             1.8494-1
 H2O2            8.0221-9
 *N              2.4719-8
 NCO             2.338-10
 *NH             1.0652-8
 NH2             1.2075-8
 NH3             6.4902-8
 NH2OH           1.034-12
 *NO             2.8142-4
 NO2             7.1209-9
 NO3             3.181-16
 *N2             5.5514-1
 NCN             1.017-16
 N2H2            2.879-13
 N2O             1.3161-8
 N3              2.224-14
 N3H             1.245-14
 *O              4.5971-5
 *OH             1.5611-3
 *O2             1.0196-4
 O3              1.876-13

  * THERMODYNAMIC PROPERTIES FITTED TO 20000.K









         THERMODYNAMIC EQUILIBRIUM COMBUSTION PROPERTIES AT ASSIGNED

                                   PRESSURES

 CASE =                

             REACTANT                       MOLES         ENERGY      TEMP
                                                         KJ/KG-MOL      K
 FUEL        CO                           0.5000000   -110481.283    300.000
 OXIDANT     O2                           1.0000000        54.358    300.000
 OXIDANT     N2                           3.7619000        53.881    300.000
 FUEL        H2                           0.5000000        53.359    300.000

 O/F=    2.85966  %FUEL= 25.909038  R,EQ.RATIO= 1.333333  PHI,EQ.RATIO= 1.600000

 THERMODYNAMIC PROPERTIES

 P, BAR            1.0000
 T, K             2244.02
 RHO, KG/CU M    1.4255-1
 H, KJ/KG         -951.48
 U, KJ/KG        -1653.01
 G, KJ/KG        -24045.2
 S, KJ/(KG)(K)    10.2912

 M, (1/n)          26.596
 (dLV/dLP)t      -1.00074
 (dLV/dLT)p        1.0206
 Cp, KJ/(KG)(K)    1.7708
 GAMMAs            1.2242
 SON VEL,M/SEC      926.7

 MOLE FRACTIONS

 *C              4.943-15
 *CH             2.460-15
 CH2             2.664-14
 CH3             4.558-13
 CH2OH           3.025-14
 CH3O            3.865-15
 CH4             7.013-13
 CH3OH           7.020-15
 *CN             1.159-11
 *CO             1.2868-1
 *CO2            1.0082-1
 COOH            2.9790-8
 C2H2,acetylene  3.204-16
 CH2CO,ketene    7.160-15
 OCCN            6.330-16
 C2O             5.489-15
 *H              1.5018-3
 HCN             8.8732-9
 HCO             4.1451-8
 HCCO            5.966-16
 HNC             6.721-10
 HNCO            1.0757-8
 HNO             1.2433-8
 HNO2            4.247-10
 HNO3            1.225-15
 HO2             1.5599-8
 *H2             4.3484-2
 HCHO,formaldehy 2.2851-9
 HCOOH           9.0437-9
 H2O             1.8473-1
 H2O2            4.5181-9
 *N              1.5311-8
 NCO             2.052-10
 *NH             8.3043-9
 NH2             1.2425-8
 NH3             9.4014-8
 NH2OH           9.324-13
 *NO             1.5942-4
 NO2             2.6703-9
 *N2             5.3951-1
 N2H2            2.830-13
 N2O             7.3552-9
 N3              1.387-14
 N3H             9.970-15
 *O              2.2535-5
 *OH             1.0585-3
 *O2             4.0175-5
 O3              4.007-14

  * THERMODYNAMIC PROPERTIES FITTED TO 20000.K









         THERMODYNAMIC EQUILIBRIUM COMBUSTION PROPERTIES AT ASSIGNED

                                   PRESSURES

 CASE =                

             REACTANT                       MOLES         ENERGY      TEMP
                                                         KJ/KG-MOL      K
 FUEL        CO                           0.5000000   -110481.283    300.000
 OXIDANT     O2                           1.0000000        54.358    300.000
 OXIDANT     N2                           3.7619000        53.881    300.000
 FUEL        H2                           0.5000000        53.359    300.000

 O/F=    2.69144  %FUEL= 27.089685  R,EQ.RATIO= 1.378378  PHI,EQ.RATIO= 1.700000

 THERMODYNAMIC PROPERTIES

 P, BAR            1.0000
 T, K             2203.22
 RHO, KG/CU M    1.4346-1
 H, KJ/KG         -994.93
 U, KJ/KG        -1691.96
 G, KJ/KG        -23822.1
 S, KJ/(KG)(K)    10.3608

 M, (1/n)          26.281
 (dLV/dLP)t      -1.00056
 (dLV/dLT)p        1.0155
 Cp, KJ/(KG)(K)    1.7370
 GAMMAs            1.2304
 SON VEL,M/SEC      926.1

 MOLE FRACTIONS

 *C              3.722-15
 *CH             2.300-15
 CH2             3.377-14
 CH3             8.102-13
 CH2OH           4.069-14
 CH3O            4.982-15
 CH4             1.701-12
 CH3OH           1.248-14
 *CN             1.141-11
 *CO             1.4266-1
 *CO2            9.4450-2
 COOH            2.5684-8
 C2H2,acetylene  7.288-16
 CH2CO,ketene    1.381-14
 OCCN            7.677-16
 C2O             6.230-15
 *H              1.3157-3
 HCN             1.2955-8
 HCO             4.3418-8
 HCCO            8.352-16
 HNC             9.226-10
 HNCO            1.2953-8
 HNO             7.8023-9
 HNO2            2.041-10
 HNO3            3.970-16
 HO2             7.0065-9
 *H2             5.2447-2
 HCHO,formaldehy 3.0597-9
 HCOOH           1.0019-8
 H2O             1.8364-1
 H2O2            2.5835-9
 *N              9.3713-9
 NCO             1.746-10
 *NH             6.3090-9
 NH2             1.2306-8
 NH3             1.2967-7
 NH2OH           8.192-13
 *NO             9.2189-5
 NO2             1.0473-9
 *N2             5.2465-1
 N2H2            2.677-13
 N2O             4.1990-9
 N3              8.562-15
 N3H             7.799-15
 *O              1.1227-5
 *OH             7.2114-4
 *O2             1.6565-5
 O3              9.131-15

  * THERMODYNAMIC PROPERTIES FITTED TO 20000.K









         THERMODYNAMIC EQUILIBRIUM COMBUSTION PROPERTIES AT ASSIGNED

                                   PRESSURES

 CASE =                

             REACTANT                       MOLES         ENERGY      TEMP
                                                         KJ/KG-MOL      K
 FUEL        CO                           0.5000000   -110481.283    300.000
 OXIDANT     O2                           1.0000000        54.358    300.000
 OXIDANT     N2                           3.7619000        53.881    300.000
 FUEL        H2                           0.5000000        53.359    300.000

 O/F=    2.54192  %FUEL= 28.233295  R,EQ.RATIO= 1.421053  PHI,EQ.RATIO= 1.800000

 THERMODYNAMIC PROPERTIES

 P, BAR            1.0000
 T, K             2163.49
 RHO, KG/CU M    1.4443-1
 H, KJ/KG        -1037.01
 U, KJ/KG        -1729.39
 G, KJ/KG        -23594.7
 S, KJ/(KG)(K)    10.4265

 M, (1/n)          25.980
 (dLV/dLP)t      -1.00043
 (dLV/dLT)p        1.0120
 Cp, KJ/(KG)(K)    1.7168
 GAMMAs            1.2353
 SON VEL,M/SEC      924.8

 MOLE FRACTIONS

 *C              2.673-15
 *CH             2.028-15
 CH2             3.990-14
 CH3             1.328-12
 CH2OH           5.158-14
 CH3O            6.053-15
 CH4             3.764-12
 CH3OH           2.068-14
 *CN             1.075-11
 *CO             1.5532-1
 *CO2            8.8974-2
 COOH            2.1931-8
 C2H2,acetylene  1.487-15
 CH2CO,ketene    2.448-14
 OCCN            8.764-16
 C2O             6.648-15
 *H              1.1350-3
 HCN             1.7920-8
 HCO             4.4004-8
 HCCO            1.086-15
 HNC             1.1992-9
 HNCO            1.5124-8
 HNO             4.9303-9
 HNO2            1.010-10
 HNO3            1.353-16
 HO2             3.2359-9
 *H2             6.1584-2
 HCHO,formaldehy 3.9179-9
 HCOOH           1.0866-8
 H2O             1.8189-1
 H2O2            1.5011-9
 *N              5.7108-9
 NCO             1.457-10
 *NH             4.7141-9
 NH2             1.1849-8
 NH3             1.7198-7
 NH2OH           7.067-13
 *NO             5.4391-5
 NO2             4.281-10
 *N2             5.1053-1
 N2H2            2.464-13
 N2O             2.4472-9
 N3              5.268-15
 N3H             6.009-15
 *O              5.6958-6
 *OH             4.9470-4
 *O2             7.1176-6
 O3              2.212-15

  * THERMODYNAMIC PROPERTIES FITTED TO 20000.K









         THERMODYNAMIC EQUILIBRIUM COMBUSTION PROPERTIES AT ASSIGNED

                                   PRESSURES

 CASE =                

             REACTANT                       MOLES         ENERGY      TEMP
                                                         KJ/KG-MOL      K
 FUEL        CO                           0.5000000   -110481.283    300.000
 OXIDANT     O2                           1.0000000        54.358    300.000
 OXIDANT     N2                           3.7619000        53.881    300.000
 FUEL        H2                           0.5000000        53.359    300.000

 O/F=    2.40813  %FUEL= 29.341584  R,EQ.RATIO= 1.461538  PHI,EQ.RATIO= 1.900000

 THERMODYNAMIC PROPERTIES

 P, BAR            1.0000
 T, K             2125.10
 RHO, KG/CU M    1.4542-1
 H, KJ/KG        -1077.79
 U, KJ/KG        -1765.45
 G, KJ/KG        -23367.2
 S, KJ/(KG)(K)    10.4887

 M, (1/n)          25.695
 (dLV/dLP)t      -1.00034
 (dLV/dLT)p        1.0095
 Cp, KJ/(KG)(K)    1.7047
 GAMMAs            1.2393
 SON VEL,M/SEC      923.2

 MOLE FRACTIONS

 *C              1.857-15
 *CH             1.711-15
 CH2             4.465-14
 CH3             2.041-12
 CH2OH           6.247-14
 CH3O            7.027-15
 CH4             7.733-12
 CH3OH           3.241-14
 *CN             9.804-12
 *CO             1.6682-1
 *CO2            8.4266-2
 COOH            1.8620-8
 C2H2,acetylene  2.787-15
 CH2CO,ketene    4.057-14
 OCCN            9.559-16
 C2O             6.775-15
 *H              9.6828-4
 HCN             2.3757-8
 HCO             4.3517-8
 HCCO            1.334-15
 HNC             1.4937-9
 HNCO            1.7244-8
 HNO             3.1402-9
 HNO2            5.131-11
 HO2             1.5333-9
 *H2             7.0779-2
 HCHO,formaldehy 4.8451-9
 HCOOH           1.1599-8
 H2O             1.7965-1
 H2O2            8.856-10
 *N              3.4782-9
 NCO             1.199-10
 *NH             3.4836-9
 NH2             1.1167-8
 NH3             2.2100-7
 NH2OH           6.017-13
 *NO             3.2683-5
 NO2             1.815-10
 *N2             4.9713-1
 N2H2            2.221-13
 N2O             1.4534-9
 N3              3.242-15
 N3H             4.584-15
 *O              2.9413-6
 *OH             3.4185-4
 *O2             3.1715-6
 O3              5.659-16

  * THERMODYNAMIC PROPERTIES FITTED TO 20000.K









         THERMODYNAMIC EQUILIBRIUM COMBUSTION PROPERTIES AT ASSIGNED

                                   PRESSURES

 CASE =                

             REACTANT                       MOLES         ENERGY      TEMP
                                                         KJ/KG-MOL      K
 FUEL        CO                           0.5000000   -110481.283    300.000
 OXIDANT     O2                           1.0000000        54.358    300.000
 OXIDANT     N2                           3.7619000        53.881    300.000
 FUEL        H2                           0.5000000        53.359    300.000

 O/F=    2.28773  %FUEL= 30.416163  R,EQ.RATIO= 1.500000  PHI,EQ.RATIO= 2.000000

 THERMODYNAMIC PROPERTIES

 P, BAR            1.0000
 T, K             2088.12
 RHO, KG/CU M    1.4643-1
 H, KJ/KG        -1117.33
 U, KJ/KG        -1800.25
 G, KJ/KG        -23142.0
 S, KJ/(KG)(K)    10.5476

 M, (1/n)          25.423
 (dLV/dLP)t      -1.00027
 (dLV/dLT)p        1.0076
 Cp, KJ/(KG)(K)    1.6977
 GAMMAs            1.2427
 SON VEL,M/SEC      921.2

 MOLE FRACTIONS

 *C              1.260-15
 *CH             1.397-15
 CH2             4.789-14
 CH3             2.979-12
 CH2OH           7.297-14
 CH3O            7.870-15
 CH4             1.496-11
 CH3OH           4.856-14
 *CN             8.725-12
 *CO             1.7732-1
 *CO2            8.0209-2
 COOH            1.5757-8
 C2H2,acetylene  4.877-15
 CH2CO,ketene    6.376-14
 OCCN            1.007-15
 C2O             6.665-15
 C3O2            1.133-16
 *H              8.1942-4
 HCN             3.0447-8
 HCO             4.2235-8
 HCCO            1.569-15
 HNC             1.7986-9
 HNCO            1.9299-8
 HNO             2.0161-9
 HNO2            2.668-11
 HO2             7.435-10
 *H2             7.9942-2
 HCHO,formaldehy 5.8282-9
 HCOOH           1.2233-8
 H2O             1.7706-1
 H2O2            5.298-10
 *N              2.1216-9
 NCO             9.776-11
 *NH             2.5547-9
 NH2             1.0351-8
 NH3             2.7675-7
 NH2OH           5.074-13
 *NO             1.9963-5
 NO2             7.949-11
 *N2             4.8439-1
 N2H2            1.971-13
 N2O             8.779-10
 N3              2.000-15
 N3H             3.473-15
 *O              1.5441-6
 *OH             2.3793-4
 *O2             1.4587-6
 O3              1.520-16

  * THERMODYNAMIC PROPERTIES FITTED TO 20000.K



