
 *******************************************************************************

         NASA-GLENN CHEMICAL EQUILIBRIUM PROGRAM CEA2, MAY 21, 2004
                   BY  BONNIE MCBRIDE AND SANFORD GORDON
      REFS: NASA RP-1311, PART I, 1994 AND NASA RP-1311, PART II, 1996

 *******************************************************************************



 problem    phi,eq.ratio=3.7,3.8,3.9,4,
       hp   p,bar=1,  t,k=3800
 react
   fuel=CO moles=0.5 t,k=300
   oxid=O2 moles=1 t,k=300
   oxid=N2 moles=3.7619 t,k=300
   fuel=H2 moles=0.5 t,k=300
 output
      trace=1e-16 siunits short
 end




         THERMODYNAMIC EQUILIBRIUM COMBUSTION PROPERTIES AT ASSIGNED

                                   PRESSURES

 CASE =                

             REACTANT                       MOLES         ENERGY      TEMP
                                                         KJ/KG-MOL      K
 FUEL        CO                           0.5000000   -110481.283    300.000
 OXIDANT     O2                           1.0000000        54.358    300.000
 OXIDANT     N2                           3.7619000        53.881    300.000
 FUEL        H2                           0.5000000        53.359    300.000

 O/F=    1.23661  %FUEL= 44.710552  R,EQ.RATIO= 1.947368  PHI,EQ.RATIO= 3.700000

 THERMODYNAMIC PROPERTIES

 P, BAR            1.0000
 T, K             1633.77
 RHO, KG/CU M    1.6388-1
 H, KJ/KG        -1643.31
 U, KJ/KG        -2253.52
 G, KJ/KG        -19984.3
 S, KJ/(KG)(K)    11.2262

 M, (1/n)          22.261
 (dLV/dLP)t      -1.00001
 (dLV/dLT)p        1.0003
 Cp, KJ/(KG)(K)    1.7506
 GAMMAs            1.2714
 SON VEL,M/SEC      880.8

 MOLE FRACTIONS

 CH2             1.320-14
 CH3             6.915-11
 CH2OH           1.171-13
 CH3O            6.674-15
 CH4             1.9805-8
 CH3OH           2.576-12
 *CN             3.389-13
 *CO             2.7772-1
 *CO2            5.3756-2
 COOH            9.796-10
 C2H2,acetylene  8.434-13
 CH2CO,ketene    4.832-12
 O(CH)2O         2.755-16
 CH3CN           6.104-15
 CH3CO,acetyl    2.387-16
 C2H4            1.466-14
 CH3CHO,ethanal  7.428-16
 OCCN            3.498-16
 C2N2            9.531-16
 C2O             7.616-16
 C3O2            1.394-15
 *H              3.5070-5
 HCN             2.4758-7
 HCO             9.4505-9
 HCCO            1.874-15
 HNC             5.3849-9
 HNCO            4.3963-8
 HNO             2.658-12
 HNO2            2.932-15
 HO2             2.556-14
 *H2             2.0604-1
 HCHO,formaldehy 2.4814-8
 HCOOH           1.6047-8
 H2O             1.2542-1
 H2O2            3.193-13
 *N              8.167-13
 NCO             2.329-12
 *NH             1.123-11
 NH2             1.1688-9
 NH3             2.3367-6
 NH2OH           1.954-14
 *NO             1.8951-8
 NO2             9.133-16
 *N2             3.3702-1
 N2H2            1.200-14
 N2O             7.359-13
 *O              1.282-10
 *OH             1.0711-6
 *O2             3.542-11

  * THERMODYNAMIC PROPERTIES FITTED TO 20000.K









         THERMODYNAMIC EQUILIBRIUM COMBUSTION PROPERTIES AT ASSIGNED

                                   PRESSURES

 CASE =                

             REACTANT                       MOLES         ENERGY      TEMP
                                                         KJ/KG-MOL      K
 FUEL        CO                           0.5000000   -110481.283    300.000
 OXIDANT     O2                           1.0000000        54.358    300.000
 OXIDANT     N2                           3.7619000        53.881    300.000
 FUEL        H2                           0.5000000        53.359    300.000

 O/F=    1.20407  %FUEL= 45.370689  R,EQ.RATIO= 1.965517  PHI,EQ.RATIO= 3.800000

 THERMODYNAMIC PROPERTIES

 P, BAR            1.0000
 T, K             1614.49
 RHO, KG/CU M    1.6488-1
 H, KJ/KG        -1667.60
 U, KJ/KG        -2274.08
 G, KJ/KG        -19835.7
 S, KJ/(KG)(K)    11.2532

 M, (1/n)          22.133
 (dLV/dLP)t      -1.00001
 (dLV/dLT)p        1.0003
 Cp, KJ/(KG)(K)    1.7555
 GAMMAs            1.2724
 SON VEL,M/SEC      878.5

 MOLE FRACTIONS

 CH2             1.158-14
 CH3             7.644-11
 CH2OH           1.144-13
 CH3O            6.306-15
 CH4             2.7038-8
 CH3OH           3.014-12
 *CN             2.741-13
 *CO             2.8122-1
 *CO2            5.3231-2
 COOH            8.408-10
 C2H2,acetylene  1.019-12
 CH2CO,ketene    5.710-12
 O(CH)2O         2.858-16
 CH3CN           8.582-15
 CH3CO,acetyl    2.764-16
 C2H4            2.144-14
 CH3CHO,ethanal  1.006-15
 CH3COOH         1.105-16
 OCCN            3.156-16
 C2N2            1.017-15
 C2O             6.457-16
 C3O2            1.513-15
 *H              2.9155-5
 HCN             2.6530-7
 HCO             8.4950-9
 HCCO            1.785-15
 HNC             5.4616-9
 HNCO            4.4968-8
 HNO             1.871-12
 HNO2            1.843-15
 HO2             1.504-14
 *H2             2.1164-1
 HCHO,formaldehy 2.5907-8
 HCOOH           1.6102-8
 H2O             1.2279-1
 H2O2            2.172-13
 *N              5.314-13
 NCO             1.879-12
 *NH             8.243-12
 NH2             1.0124-9
 NH3             2.5333-6
 NH2OH           1.616-14
 *NO             1.3254-8
 NO2             5.134-16
 *N2             3.3109-1
 N2H2            1.008-14
 N2O             5.123-13
 *O              7.836-11
 *OH             8.0464-7
 *O2             2.071-11

  * THERMODYNAMIC PROPERTIES FITTED TO 20000.K









         THERMODYNAMIC EQUILIBRIUM COMBUSTION PROPERTIES AT ASSIGNED

                                   PRESSURES

 CASE =                

             REACTANT                       MOLES         ENERGY      TEMP
                                                         KJ/KG-MOL      K
 FUEL        CO                           0.5000000   -110481.283    300.000
 OXIDANT     O2                           1.0000000        54.358    300.000
 OXIDANT     N2                           3.7619000        53.881    300.000
 FUEL        H2                           0.5000000        53.359    300.000

 O/F=    1.17319  %FUEL= 46.015249  R,EQ.RATIO= 1.983051  PHI,EQ.RATIO= 3.900000

 THERMODYNAMIC PROPERTIES

 P, BAR            1.0000
 T, K             1595.80
 RHO, KG/CU M    1.6589-1
 H, KJ/KG        -1691.31
 U, KJ/KG        -2294.13
 G, KJ/KG        -19690.6
 S, KJ/(KG)(K)    11.2792

 M, (1/n)          22.010
 (dLV/dLP)t      -1.00001
 (dLV/dLT)p        1.0002
 Cp, KJ/(KG)(K)    1.7604
 GAMMAs            1.2734
 SON VEL,M/SEC      876.1

 MOLE FRACTIONS

 CH2             1.014-14
 CH3             8.412-11
 CH2OH           1.115-13
 CH3O            5.947-15
 CH4             3.6673-8
 CH3OH           3.511-12
 *CN             2.216-13
 *CO             2.8456-1
 *CO2            5.2753-2
 COOH            7.226-10
 C2H2,acetylene  1.223-12
 CH2CO,ketene    6.716-12
 O(CH)2O         2.958-16
 CH3CN           1.197-14
 CH3CO,acetyl    3.184-16
 C2H4            3.108-14
 CH3CHO,ethanal  1.353-15
 CH3COOH         1.428-16
 OCCN            2.844-16
 C2N2            1.081-15
 C2O             5.470-16
 C3O2            1.636-15
 *H              2.4257-5
 HCN             2.8350-7
 HCO             7.6332-9
 HCCO            1.696-15
 HNC             5.5263-9
 HNCO            4.5940-8
 HNO             1.322-12
 HNO2            1.165-15
 HO2             8.906-15
 *H2             2.1707-1
 HCHO,formaldehy 2.6992-8
 HCOOH           1.6150-8
 H2O             1.2023-1
 H2O2            1.484-13
 *N              3.469-13
 NCO             1.517-12
 *NH             6.061-12
 NH2             8.769-10
 NH3             2.7398-6
 NH2OH           1.338-14
 *NO             9.3060-9
 NO2             2.906-16
 *N2             3.2537-1
 N2H2            8.474-15
 N2O             3.582-13
 *O              4.815-11
 *OH             6.0609-7
 *O2             1.219-11

  * THERMODYNAMIC PROPERTIES FITTED TO 20000.K









         THERMODYNAMIC EQUILIBRIUM COMBUSTION PROPERTIES AT ASSIGNED

                                   PRESSURES

 CASE =                

             REACTANT                       MOLES         ENERGY      TEMP
                                                         KJ/KG-MOL      K
 FUEL        CO                           0.5000000   -110481.283    300.000
 OXIDANT     O2                           1.0000000        54.358    300.000
 OXIDANT     N2                           3.7619000        53.881    300.000
 FUEL        H2                           0.5000000        53.359    300.000

 O/F=    1.14386  %FUEL= 46.644775  R,EQ.RATIO= 2.000000  PHI,EQ.RATIO= 4.000000

 THERMODYNAMIC PROPERTIES

 P, BAR            1.0000
 T, K             1577.67
 RHO, KG/CU M    1.6689-1
 H, KJ/KG        -1714.48
 U, KJ/KG        -2313.69
 G, KJ/KG        -19548.8
 S, KJ/(KG)(K)    11.3042

 M, (1/n)          21.891
 (dLV/dLP)t      -1.00001
 (dLV/dLT)p        1.0002
 Cp, KJ/(KG)(K)    1.7653
 GAMMAs            1.2743
 SON VEL,M/SEC      873.8

 MOLE FRACTIONS

 CH2             8.865-15
 CH3             9.221-11
 CH2OH           1.085-13
 CH3O            5.599-15
 CH4             4.9442-8
 CH3OH           4.075-12
 *CN             1.792-13
 *CO             2.8776-1
 *CO2            5.2317-2
 COOH            6.217-10
 C2H2,acetylene  1.460-12
 CH2CO,ketene    7.864-12
 O(CH)2O         3.054-16
 CH3CN           1.658-14
 CH3CO,acetyl    3.651-16
 C2H4            4.469-14
 CH3CHO,ethanal  1.808-15
 CH3COOH         1.835-16
 OCCN            2.559-16
 C2N2            1.145-15
 C2O             4.630-16
 C3O2            1.763-15
 *H              2.0200-5
 HCN             3.0217-7
 HCO             6.8568-9
 HCCO            1.607-15
 HNC             5.5798-9
 HNCO            4.6882-8
 HNO             9.367-13
 HNO2            7.401-16
 HO2             5.302-15
 *H2             2.2234-1
 HCHO,formaldehy 2.8068-8
 HCOOH           1.6191-8
 H2O             1.1772-1
 H2O2            1.018-13
 *N              2.272-13
 NCO             1.227-12
 *NH             4.465-12
 NH2             7.595-10
 NH3             2.9565-6
 NH2OH           1.108-14
 *NO             6.5593-9
 NO2             1.655-16
 *N2             3.1983-1
 N2H2            7.125-15
 N2O             2.514-13
 *O              2.972-11
 *OH             4.5774-7
 *O2             7.220-12

  * THERMODYNAMIC PROPERTIES FITTED TO 20000.K



