
 *******************************************************************************

         NASA-GLENN CHEMICAL EQUILIBRIUM PROGRAM CEA2, FEBRUARY 5, 2004
                   BY  BONNIE MCBRIDE AND SANFORD GORDON
      REFS: NASA RP-1311, PART I, 1994 AND NASA RP-1311, PART II, 1996

 *******************************************************************************



  
 ### CEA analysis performed on Thu 16-Oct-2025 10:36:05
  
 # Problem Type: "Entropy and Volume (or Density)"
  
 prob case = _______________2023 sv
  
 # Entropy (S/R) (1 value):
 s/r= 0.9031
 # Density (1 value):
 rho,kg/m**3= 5
  
 # Equivalence based on Fuel/Oxid. wt ratio (Eq 9.19*) (16 values):
 phi = 0.5, 0.6, 0.7, 0.8, 0.9, 1, 1.1, 1.2, 1.3, 1.4, 1.5, 1.6, 1.7, 1.8, 1.9, 2
  
 # You selected the following fuels and oxidizers:
 reac
 fuel CH4              mole=100.0000
 oxid Air              mole=100.0000
  
 # You selected these options for output:
 # short version of output
 output short
 # Proportions of any products will be expressed as Mole Fractions.
 # Heat will be expressed as siunits
 output siunits
 # Trace variable:
 output trace=1e-14
  
 # Input prepared by this script:/var/www/sites/cearun/cgi-bin/CEARUN/prepareInpu
 tFile.cgi
  
 ### IMPORTANT:  The following line is the end of your CEA input file!
 end




               THERMODYNAMIC EQUILIBRIUM PROPERTIES AT ASSIGNED

                              ENTROPY AND VOLUME

 CASE = _______________

             REACTANT                       MOLES         ENERGY      TEMP
                                                         KJ/KG-MOL      K
 FUEL        CH4                        100.0000000         0.000      0.000
 OXIDANT     Air                        100.0000000         0.000      0.000

 O/F=   34.47704  %FUEL=  2.818724  R,EQ.RATIO= 0.500760  PHI,EQ.RATIO= 0.500000

 THERMODYNAMIC PROPERTIES

 P, BAR            12.558
 T, K              855.51
 RHO, KG/CU M    5.0000 0
 H, KJ/KG         -923.04
 U, KJ/KG        -1174.19
 G, KJ/KG        -7346.89
 S, KJ/(KG)(K)     7.5088

 M, (1/n)          28.322
 (dLV/dLP)t      -1.00000
 (dLV/dLT)p        1.0000
 Cp, KJ/(KG)(K)    1.1908
 GAMMAs            1.3272
 SON VEL,M/SEC      577.3

 MOLE FRACTIONS

 *Ar             8.8990-3
 *CO2            5.0066-2
 HNO2            1.5277-8
 HNO3            7.712-10
 HO2             7.266-11
 *H2             5.108-14
 H2O             9.9526-2
 H2O2            3.654-11
 *NO             3.2632-6
 NO2             1.3993-6
 NO3             1.786-13
 *N2             7.4198-1
 N2O             1.1015-9
 *O              8.307-14
 *OH             2.4981-9
 *O2             9.9523-2
 O3              6.092-14

  * THERMODYNAMIC PROPERTIES FITTED TO 20000.K









               THERMODYNAMIC EQUILIBRIUM PROPERTIES AT ASSIGNED

                              ENTROPY AND VOLUME

 CASE = _______________

             REACTANT                       MOLES         ENERGY      TEMP
                                                         KJ/KG-MOL      K
 FUEL        CH4                        100.0000000         0.000      0.000
 OXIDANT     Air                        100.0000000         0.000      0.000

 O/F=   28.73087  %FUEL=  3.363507  R,EQ.RATIO= 0.600608  PHI,EQ.RATIO= 0.600000

 THERMODYNAMIC PROPERTIES

 P, BAR            12.073
 T, K              818.98
 RHO, KG/CU M    5.0000 0
 H, KJ/KG        -1257.56
 U, KJ/KG        -1499.02
 G, KJ/KG        -7407.16
 S, KJ/(KG)(K)     7.5088

 M, (1/n)          28.201
 (dLV/dLP)t      -1.00000
 (dLV/dLT)p        1.0000
 Cp, KJ/(KG)(K)    1.1960
 GAMMAs            1.3272
 SON VEL,M/SEC      566.1

 MOLE FRACTIONS

 *Ar             8.8113-3
 *CO2            5.9427-2
 HNO2            1.0303-8
 HNO3            6.417-10
 HO2             2.872-11
 *H2             1.481-14
 H2O             1.1825-1
 H2O2            1.951-11
 *NO             1.6295-6
 NO2             8.7797-7
 NO3             7.673-14
 *N2             7.3467-1
 N2O             5.662-10
 *O              1.552-14
 *OH             9.504-10
 *O2             7.8834-2
 O3              1.725-14

  * THERMODYNAMIC PROPERTIES FITTED TO 20000.K









               THERMODYNAMIC EQUILIBRIUM PROPERTIES AT ASSIGNED

                              ENTROPY AND VOLUME

 CASE = _______________

             REACTANT                       MOLES         ENERGY      TEMP
                                                         KJ/KG-MOL      K
 FUEL        CH4                        100.0000000         0.000      0.000
 OXIDANT     Air                        100.0000000         0.000      0.000

 O/F=   24.62646  %FUEL=  3.902217  R,EQ.RATIO= 0.700456  PHI,EQ.RATIO= 0.700000

 THERMODYNAMIC PROPERTIES

 P, BAR            11.659
 T, K              787.56
 RHO, KG/CU M    5.0000 0
 H, KJ/KG        -1583.43
 U, KJ/KG        -1816.60
 G, KJ/KG        -7497.05
 S, KJ/(KG)(K)     7.5088

 M, (1/n)          28.082
 (dLV/dLP)t      -1.00000
 (dLV/dLT)p        1.0000
 Cp, KJ/(KG)(K)    1.2016
 GAMMAs            1.3270
 SON VEL,M/SEC      556.3

 MOLE FRACTIONS

 *Ar             8.7253-3
 *CO2            6.8606-2
 HNO2            6.6749-9
 HNO3            4.870-10
 HO2             1.127-11
 H2O             1.3662-1
 H2O2            1.027-11
 *NO             8.1800-7
 NO2             5.2486-7
 NO3             3.100-14
 *N2             7.2750-1
 N2O             2.925-10
 *OH             3.743-10
 *O2             5.8549-2

  * THERMODYNAMIC PROPERTIES FITTED TO 20000.K









               THERMODYNAMIC EQUILIBRIUM PROPERTIES AT ASSIGNED

                              ENTROPY AND VOLUME

 CASE = _______________

             REACTANT                       MOLES         ENERGY      TEMP
                                                         KJ/KG-MOL      K
 FUEL        CH4                        100.0000000         0.000      0.000
 OXIDANT     Air                        100.0000000         0.000      0.000

 O/F=   21.54815  %FUEL=  4.434953  R,EQ.RATIO= 0.800304  PHI,EQ.RATIO= 0.800000

 THERMODYNAMIC PROPERTIES

 P, BAR            11.311
 T, K              760.87
 RHO, KG/CU M    5.0000 0
 H, KJ/KG        -1900.99
 U, KJ/KG        -2127.21
 G, KJ/KG        -7614.23
 S, KJ/(KG)(K)     7.5088

 M, (1/n)          27.966
 (dLV/dLP)t      -1.00000
 (dLV/dLT)p        1.0000
 Cp, KJ/(KG)(K)    1.2079
 GAMMAs            1.3265
 SON VEL,M/SEC      547.8

 MOLE FRACTIONS

 *Ar             8.6410-3
 *CO2            7.7607-2
 HNO2            4.0216-9
 HNO3            3.160-10
 HO2             4.291-12
 H2O             1.5462-1
 H2O2            5.279-12
 *NO             4.0544-7
 NO2             2.8434-7
 NO3             1.095-14
 *N2             7.2047-1
 N2O             1.490-10
 *OH             1.535-10
 *O2             3.8656-2

  * THERMODYNAMIC PROPERTIES FITTED TO 20000.K









               THERMODYNAMIC EQUILIBRIUM PROPERTIES AT ASSIGNED

                              ENTROPY AND VOLUME

 CASE = _______________

             REACTANT                       MOLES         ENERGY      TEMP
                                                         KJ/KG-MOL      K
 FUEL        CH4                        100.0000000         0.000      0.000
 OXIDANT     Air                        100.0000000         0.000      0.000

 O/F=   19.15391  %FUEL=  4.961816  R,EQ.RATIO= 0.900152  PHI,EQ.RATIO= 0.900000

 THERMODYNAMIC PROPERTIES

 P, BAR            11.032
 T, K              739.11
 RHO, KG/CU M    5.0000 0
 H, KJ/KG        -2209.97
 U, KJ/KG        -2430.61
 G, KJ/KG        -7759.79
 S, KJ/(KG)(K)     7.5088

 M, (1/n)          27.852
 (dLV/dLP)t      -1.00000
 (dLV/dLT)p        1.0000
 Cp, KJ/(KG)(K)    1.2151
 GAMMAs            1.3257
 SON VEL,M/SEC      540.8

 MOLE FRACTIONS

 *Ar             8.5583-3
 *CO2            8.6435-2
 HNO2            2.0062-9
 HNO3            1.419-10
 HO2             1.435-12
 H2O             1.7229-1
 H2O2            2.500-12
 *NO             1.8559-7
 NO2             1.1860-7
 *N2             7.1358-1
 N2O             6.985-11
 *OH             6.495-11
 *O2             1.9143-2

  * THERMODYNAMIC PROPERTIES FITTED TO 20000.K









               THERMODYNAMIC EQUILIBRIUM PROPERTIES AT ASSIGNED

                              ENTROPY AND VOLUME

 CASE = _______________

             REACTANT                       MOLES         ENERGY      TEMP
                                                         KJ/KG-MOL      K
 FUEL        CH4                        100.0000000         0.000      0.000
 OXIDANT     Air                        100.0000000         0.000      0.000

 O/F=   17.23852  %FUEL=  5.482900  R,EQ.RATIO= 1.000000  PHI,EQ.RATIO= 1.000000

 THERMODYNAMIC PROPERTIES

 P, BAR            10.873
 T, K              725.49
 RHO, KG/CU M    5.0000 0
 H, KJ/KG        -2506.33
 U, KJ/KG        -2723.78
 G, KJ/KG        -7953.92
 S, KJ/(KG)(K)     7.5088

 M, (1/n)          27.740
 (dLV/dLP)t      -1.00000
 (dLV/dLT)p        1.0000
 Cp, KJ/(KG)(K)    1.2244
 GAMMAs            1.3241
 SON VEL,M/SEC      536.6

 MOLE FRACTIONS

 *Ar             8.4771-3
 *CO             1.428-12
 *CO2            9.5097-2
 *H2             2.131-11
 H2O             1.8962-1
 *NO             3.153-12
 *N2             7.0681-1
 *OH             1.993-13
 *O2             9.745-12

  * THERMODYNAMIC PROPERTIES FITTED TO 20000.K









               THERMODYNAMIC EQUILIBRIUM PROPERTIES AT ASSIGNED

                              ENTROPY AND VOLUME

 CASE = _______________

             REACTANT                       MOLES         ENERGY      TEMP
                                                         KJ/KG-MOL      K
 FUEL        CH4                        100.0000000         0.000      0.000
 OXIDANT     Air                        100.0000000         0.000      0.000

 O/F=   15.67138  %FUEL=  5.998302  R,EQ.RATIO= 1.099848  PHI,EQ.RATIO= 1.100000

 THERMODYNAMIC PROPERTIES

 P, BAR            10.126
 T, K              669.28
 RHO, KG/CU M    5.0000 0
 H, KJ/KG        -2561.04
 U, KJ/KG        -2763.57
 G, KJ/KG        -7586.53
 S, KJ/(KG)(K)     7.5088

 M, (1/n)          27.476
 (dLV/dLP)t      -1.00251
 (dLV/dLT)p        1.0419
 Cp, KJ/(KG)(K)    1.4429
 GAMMAs            1.2906
 SON VEL,M/SEC      511.3

 MOLE FRACTIONS

 *Ar             8.3508-3
 CH4             6.4930-3
 CH3OH           7.189-11
 *CO             4.4777-4
 *CO2            9.6079-2
 CH3CN           2.735-12
 C2H4            6.940-12
 CH3CHO,ethanal  4.624-13
 CH3COOH         7.448-12
 C2H6            9.8045-9
 C3H8            1.076-13
 HCN             7.473-11
 HNCO            5.983-10
 *H2             1.0738-2
 HCHO,formaldehy 3.628-11
 HCOOH           4.5479-9
 H2O             1.8155-1
 NH3             1.3374-4
 *N2             6.9621-1

  * THERMODYNAMIC PROPERTIES FITTED TO 20000.K









               THERMODYNAMIC EQUILIBRIUM PROPERTIES AT ASSIGNED

                              ENTROPY AND VOLUME

 CASE = _______________

             REACTANT                       MOLES         ENERGY      TEMP
                                                         KJ/KG-MOL      K
 FUEL        CH4                        100.0000000         0.000      0.000
 OXIDANT     Air                        100.0000000         0.000      0.000

 O/F=   14.36544  %FUEL=  6.508114  R,EQ.RATIO= 1.199696  PHI,EQ.RATIO= 1.200000

 THERMODYNAMIC PROPERTIES

 P, BAR            9.7637
 T, K              643.14
 RHO, KG/CU M    5.0000 0
 H, KJ/KG        -2600.54
 U, KJ/KG        -2795.81
 G, KJ/KG        -7429.74
 S, KJ/(KG)(K)     7.5088

 M, (1/n)          27.384
 (dLV/dLP)t      -1.00242
 (dLV/dLT)p        1.0415
 Cp, KJ/(KG)(K)    1.4492
 GAMMAs            1.2901
 SON VEL,M/SEC      501.9

 MOLE FRACTIONS

 *Ar             8.2776-3
 CH4             1.5920-2
 CH3OH           8.091-11
 *CO             3.0888-4
 *CO2            9.5144-2
 CH3CN           4.007-12
 C2H4            1.102-11
 CH3CHO,ethanal  6.588-13
 CH3COOH         1.339-11
 C2H6            3.8621-8
 C2H5OH          1.791-14
 C3H8            7.342-13
 HCN             4.447-11
 HNCO            4.063-10
 *H2             9.8253-3
 HCHO,formaldehy 2.271-11
 HCOOH           3.6800-9
 H2O             1.8027-1
 NH3             1.6448-4
 *N2             6.9009-1

  * THERMODYNAMIC PROPERTIES FITTED TO 20000.K









               THERMODYNAMIC EQUILIBRIUM PROPERTIES AT ASSIGNED

                              ENTROPY AND VOLUME

 CASE = _______________

             REACTANT                       MOLES         ENERGY      TEMP
                                                         KJ/KG-MOL      K
 FUEL        CH4                        100.0000000         0.000      0.000
 OXIDANT     Air                        100.0000000         0.000      0.000

 O/F=   13.26040  %FUEL=  7.012425  R,EQ.RATIO= 1.299544  PHI,EQ.RATIO= 1.300000

 THERMODYNAMIC PROPERTIES

 P, BAR            9.4537
 T, K              620.84
 RHO, KG/CU M    5.0000 0
 H, KJ/KG        -2636.57
 U, KJ/KG        -2825.65
 G, KJ/KG        -7298.33
 S, KJ/(KG)(K)     7.5088

 M, (1/n)          27.301
 (dLV/dLP)t      -1.00207
 (dLV/dLT)p        1.0363
 Cp, KJ/(KG)(K)    1.4295
 GAMMAs            1.2932
 SON VEL,M/SEC      494.5

 MOLE FRACTIONS

 *Ar             8.2080-3
 CH4             2.5350-2
 CH3OH           6.892-11
 *CO             1.9995-4
 *CO2            9.4067-2
 CH3CN           3.463-12
 C2H4            9.812-12
 CH3CHO,ethanal  5.811-13
 CH3COOH         1.603-11
 C2H6            7.2607-8
 C2H5OH          2.104-14
 C3H8            1.747-12
 HCN             2.199-11
 HNCO            2.483-10
 *H2             8.2956-3
 HCHO,formaldehy 1.232-11
 HCOOH           2.7695-9
 H2O             1.7942-1
 NH3             1.7430-4
 *N2             6.8429-1

  * THERMODYNAMIC PROPERTIES FITTED TO 20000.K









               THERMODYNAMIC EQUILIBRIUM PROPERTIES AT ASSIGNED

                              ENTROPY AND VOLUME

 CASE = _______________

             REACTANT                       MOLES         ENERGY      TEMP
                                                         KJ/KG-MOL      K
 FUEL        CH4                        100.0000000         0.000      0.000
 OXIDANT     Air                        100.0000000         0.000      0.000

 O/F=   12.31323  %FUEL=  7.511325  R,EQ.RATIO= 1.399392  PHI,EQ.RATIO= 1.400000

 THERMODYNAMIC PROPERTIES

 P, BAR            9.1714
 T, K              600.49
 RHO, KG/CU M    5.0000 0
 H, KJ/KG        -2670.33
 U, KJ/KG        -2853.76
 G, KJ/KG        -7179.29
 S, KJ/(KG)(K)     7.5088

 M, (1/n)          27.219
 (dLV/dLP)t      -1.00170
 (dLV/dLT)p        1.0306
 Cp, KJ/(KG)(K)    1.4052
 GAMMAs            1.2973
 SON VEL,M/SEC      487.8

 MOLE FRACTIONS

 *Ar             8.1395-3
 CH4             3.4618-2
 CH3OH           5.294-11
 *CO             1.2599-4
 *CO2            9.2978-2
 CH3CN           2.467-12
 C2H4            7.068-12
 CH3CHO,ethanal  4.301-13
 CH3COOH         1.659-11
 C2H6            1.0485-7
 C2H5OH          1.991-14
 C3H8            2.858-12
 HCN             1.011-11
 HNCO            1.455-10
 *H2             6.7900-3
 HCHO,formaldehy 6.300-12
 HCOOH           2.0255-9
 H2O             1.7860-1
 NH3             1.7494-4
 *N2             6.7857-1

  * THERMODYNAMIC PROPERTIES FITTED TO 20000.K









               THERMODYNAMIC EQUILIBRIUM PROPERTIES AT ASSIGNED

                              ENTROPY AND VOLUME

 CASE = _______________

             REACTANT                       MOLES         ENERGY      TEMP
                                                         KJ/KG-MOL      K
 FUEL        CH4                        100.0000000         0.000      0.000
 OXIDANT     Air                        100.0000000         0.000      0.000

 O/F=   11.49235  %FUEL=  8.004900  R,EQ.RATIO= 1.499240  PHI,EQ.RATIO= 1.500000

 THERMODYNAMIC PROPERTIES

 P, BAR            8.9141
 T, K              581.86
 RHO, KG/CU M    5.0000 0
 H, KJ/KG        -2702.17
 U, KJ/KG        -2880.45
 G, KJ/KG        -7071.23
 S, KJ/(KG)(K)     7.5088

 M, (1/n)          27.136
 MW, MOL WT        27.088
 (dLV/dLP)t      -1.00138
 (dLV/dLT)p        1.0251
 Cp, KJ/(KG)(K)    1.4181
 GAMMAs            1.2914
 SON VEL,M/SEC      479.8

 MOLE FRACTIONS

 *Ar             8.0572-3
 CH4             4.2727-2
 CH3OH           3.821-11
 *CO             7.7314-5
 *CO2            9.0891-2
 CH3CN           1.533-12
 C2H4            4.400-12
 CH3CHO,ethanal  2.821-13
 CH3COOH         1.550-11
 C2H6            1.2678-7
 C2H5OH          1.636-14
 C3H8            3.623-12
 HCN             4.411-12
 HNCO            8.262-11
 *H2             5.4884-3
 HCHO,formaldehy 3.105-12
 HCOOH           1.4533-9
 H2O             1.7913-1
 NH3             1.7113-4
 *N2             6.7171-1
 C(gr)           1.7450-3

  * THERMODYNAMIC PROPERTIES FITTED TO 20000.K









               THERMODYNAMIC EQUILIBRIUM PROPERTIES AT ASSIGNED

                              ENTROPY AND VOLUME

 CASE = _______________

             REACTANT                       MOLES         ENERGY      TEMP
                                                         KJ/KG-MOL      K
 FUEL        CH4                        100.0000000         0.000      0.000
 OXIDANT     Air                        100.0000000         0.000      0.000

 O/F=   10.77408  %FUEL=  8.493235  R,EQ.RATIO= 1.599088  PHI,EQ.RATIO= 1.600000

 THERMODYNAMIC PROPERTIES

 P, BAR            8.6982
 T, K              565.94
 RHO, KG/CU M    5.0000 0
 H, KJ/KG        -2732.12
 U, KJ/KG        -2906.08
 G, KJ/KG        -6981.70
 S, KJ/(KG)(K)     7.5088

 M, (1/n)          27.049
 MW, MOL WT        26.739
 (dLV/dLP)t      -1.00115
 (dLV/dLT)p        1.0212
 Cp, KJ/(KG)(K)    1.4076
 GAMMAs            1.2930
 SON VEL,M/SEC      474.3

 MOLE FRACTIONS

 *Ar             7.9110-3
 CH4             4.6157-2
 CH3OH           2.632-11
 *CO             4.5269-5
 *CO2            8.4182-2
 CH3CN           7.856-13
 C2H4            2.269-12
 CH3CHO,ethanal  1.581-13
 CH3COOH         1.242-11
 C2H6            1.2022-7
 C2H5OH          1.134-14
 C3H8            3.207-12
 HCN             1.837-12
 HNCO            4.529-11
 *H2             4.5234-3
 HCHO,formaldehy 1.502-12
 HCOOH           1.0253-9
 H2O             1.8604-1
 NH3             1.6821-4
 *N2             6.5953-1
 C(gr)           1.1448-2

  * THERMODYNAMIC PROPERTIES FITTED TO 20000.K









               THERMODYNAMIC EQUILIBRIUM PROPERTIES AT ASSIGNED

                              ENTROPY AND VOLUME

 CASE = _______________

             REACTANT                       MOLES         ENERGY      TEMP
                                                         KJ/KG-MOL      K
 FUEL        CH4                        100.0000000         0.000      0.000
 OXIDANT     Air                        100.0000000         0.000      0.000

 O/F=   10.14031  %FUEL=  8.976413  R,EQ.RATIO= 1.698936  PHI,EQ.RATIO= 1.700000

 THERMODYNAMIC PROPERTIES

 P, BAR            8.4930
 T, K              550.81
 RHO, KG/CU M    5.0000 0
 H, KJ/KG        -2760.95
 U, KJ/KG        -2930.81
 G, KJ/KG        -6896.88
 S, KJ/(KG)(K)     7.5088

 M, (1/n)          26.961
 MW, MOL WT        26.405
 (dLV/dLP)t      -1.00096
 (dLV/dLT)p        1.0179
 Cp, KJ/(KG)(K)    1.3996
 GAMMAs            1.2942
 SON VEL,M/SEC      468.9

 MOLE FRACTIONS

 *Ar             7.7710-3
 CH4             4.9526-2
 CH3OH           1.796-11
 *CO             2.6412-5
 *CO2            7.7831-2
 CH3CN           3.995-13
 C2H4            1.158-12
 CH3CHO,ethanal  8.773-14
 CH3COOH         9.867-12
 C2H6            1.1280-7
 C3H8            2.800-12
 HCN             7.608-13
 HNCO            2.470-11
 *H2             3.7149-3
 HCHO,formaldehy 7.208-13
 HCOOH           7.190-10
 H2O             1.9248-1
 NH3             1.6455-4
 *N2             6.4785-1
 C(gr)           2.0629-2

  * THERMODYNAMIC PROPERTIES FITTED TO 20000.K









               THERMODYNAMIC EQUILIBRIUM PROPERTIES AT ASSIGNED

                              ENTROPY AND VOLUME

 CASE = _______________

             REACTANT                       MOLES         ENERGY      TEMP
                                                         KJ/KG-MOL      K
 FUEL        CH4                        100.0000000         0.000      0.000
 OXIDANT     Air                        100.0000000         0.000      0.000

 O/F=    9.57696  %FUEL=  9.454515  R,EQ.RATIO= 1.798784  PHI,EQ.RATIO= 1.800000

 THERMODYNAMIC PROPERTIES

 P, BAR            8.2978
 T, K              536.40
 RHO, KG/CU M    5.0000 0
 H, KJ/KG        -2788.76
 U, KJ/KG        -2954.71
 G, KJ/KG        -6816.51
 S, KJ/(KG)(K)     7.5088

 M, (1/n)          26.874
 MW, MOL WT        26.086
 (dLV/dLP)t      -1.00079
 (dLV/dLT)p        1.0150
 Cp, KJ/(KG)(K)    1.3938
 GAMMAs            1.2952
 SON VEL,M/SEC      463.6

 MOLE FRACTIONS

 *Ar             7.6368-3
 CH4             5.2845-2
 CH3OH           1.215-11
 *CO             1.5360-5
 *CO2            7.1821-2
 CH3CN           2.017-13
 C2H4            5.859-13
 CH3CHO,ethanal  4.824-14
 CH3COOH         7.778-12
 C2H6            1.0490-7
 C3H8            2.416-12
 HCN             3.136-13
 HNCO            1.342-11
 *H2             3.0423-3
 HCHO,formaldehy 3.435-13
 HCOOH           5.013-10
 H2O             1.9850-1
 NH3             1.6035-4
 *N2             6.3666-1
 C(gr)           2.9316-2

  * THERMODYNAMIC PROPERTIES FITTED TO 20000.K









               THERMODYNAMIC EQUILIBRIUM PROPERTIES AT ASSIGNED

                              ENTROPY AND VOLUME

 CASE = _______________

             REACTANT                       MOLES         ENERGY      TEMP
                                                         KJ/KG-MOL      K
 FUEL        CH4                        100.0000000         0.000      0.000
 OXIDANT     Air                        100.0000000         0.000      0.000

 O/F=    9.07291  %FUEL=  9.927621  R,EQ.RATIO= 1.898632  PHI,EQ.RATIO= 1.900000

 THERMODYNAMIC PROPERTIES

 P, BAR            8.1120
 T, K              522.68
 RHO, KG/CU M    5.0000 0
 H, KJ/KG        -2815.59
 U, KJ/KG        -2977.83
 G, KJ/KG        -6740.32
 S, KJ/(KG)(K)     7.5088

 M, (1/n)          26.787
 MW, MOL WT        25.781
 (dLV/dLP)t      -1.00065
 (dLV/dLT)p        1.0126
 Cp, KJ/(KG)(K)    1.3899
 GAMMAs            1.2959
 SON VEL,M/SEC      458.5

 MOLE FRACTIONS

 *Ar             7.5081-3
 CH4             5.6127-2
 CH3OH           8.167-12
 *CO             8.9058-6
 *CO2            6.6135-2
 CH3CN           1.013-13
 C2H4            2.943-13
 CH3CHO,ethanal  2.632-14
 CH3COOH         6.089-12
 C2H6            9.6842-8
 C3H8            2.065-12
 HCN             1.288-13
 HNCO            7.260-12
 *H2             2.4860-3
 HCHO,formaldehy 1.627-13
 HCOOH           3.478-10
 H2O             2.0411-1
 NH3             1.5576-4
 *N2             6.2594-1
 C(gr)           3.7529-2

  * THERMODYNAMIC PROPERTIES FITTED TO 20000.K









               THERMODYNAMIC EQUILIBRIUM PROPERTIES AT ASSIGNED

                              ENTROPY AND VOLUME

 CASE = _______________

             REACTANT                       MOLES         ENERGY      TEMP
                                                         KJ/KG-MOL      K
 FUEL        CH4                        100.0000000         0.000      0.000
 OXIDANT     Air                        100.0000000         0.000      0.000

 O/F=    8.61926  %FUEL= 10.395809  R,EQ.RATIO= 1.998479  PHI,EQ.RATIO= 2.000000

 THERMODYNAMIC PROPERTIES

 P, BAR            7.9348
 T, K              509.61
 RHO, KG/CU M    5.0000 0
 H, KJ/KG        -2841.51
 U, KJ/KG        -3000.21
 G, KJ/KG        -6668.05
 S, KJ/(KG)(K)     7.5088

 M, (1/n)          26.700
 MW, MOL WT        25.491
 (dLV/dLP)t      -1.00054
 (dLV/dLT)p        1.0105
 Cp, KJ/(KG)(K)    1.3875
 GAMMAs            1.2964
 SON VEL,M/SEC      453.6

 MOLE FRACTIONS

 *Ar             7.3848-3
 CH4             5.9385-2
 CH3OH           5.453-12
 *CO             5.1486-6
 *CO2            6.0762-2
 CH3CN           5.063-14
 C2H4            1.469-13
 CH3CHO,ethanal  1.426-14
 CH3COOH         4.736-12
 C2H6            8.8860-8
 C3H8            1.751-12
 HCN             5.270-14
 HNCO            3.915-12
 *H2             2.0278-3
 HCHO,formaldehy 7.662-14
 HCOOH           2.401-10
 H2O             2.0934-1
 NH3             1.5091-4
 *N2             6.1566-1
 C(gr)           4.5283-2

  * THERMODYNAMIC PROPERTIES FITTED TO 20000.K


