

NASA-GLENN CHEMICAL EQUILIBRIUM PROGRAM CEA2, FEBRUARY 5, 2004
BY  BONNIE MCBRIDE AND SANFORD GORDON
REFS: NASA RP-1311, PART I, 1994 AND NASA RP-1311, PART II, 1996

*******************************************************************************


### CEA analysis performed on Wed 12-Apr-2023 15:34:02

# Problem Type: "Entropy and Volume (or Density)"

prob case=test___________1609 sv

# Entropy (S/R) (1 value):
s/r= 0.992036255698232
# Density (1 value):
rho,kg/m**3= 1.5139

# Equivalence based on Fuel/Oxid. wt ratio (Eq 9.19*) (1 value):
phi= 0.5

# You selected the following fuels and oxidizers:
reac
fuel CH4              mole=100.0000  t,k=1500.000
oxid Air              mole=100.0000  t,k=1500.000

# You selected these options for output:
# short version of output
output short
# Proportions of any products will be expressed as Mole Fractions.
# Heat will be expressed as siunits
output siunits
# Trace variable:
output trace=1e-16

# Input prepared by this script:/var/www/sites/cearun.grc.nasa.gov/cgi-bin/CEARU
N/prepareInputFile.cgi

### IMPORTANT:  The following line is the end of your CEA input file!
end

THERMODYNAMIC EQUILIBRIUM PROPERTIES AT ASSIGNED

           ENTROPY AND VOLUME

CASE = test___________

REACTANT                       MOLES         ENERGY      TEMP
                                      KJ/KG-MOL      K
FUEL        CH4                        100.0000000     -6884.897   1500.000
OXIDANT     Air                        100.0000000     26151.700   1500.000

O/F=   34.47704  %FUEL=  2.818724  R,EQ.RATIO= 0.500760  PHI,EQ.RATIO= 0.500000

THERMODYNAMIC PROPERTIES

P, BAR            5.7334
T, K             1290.04
RHO, KG/CU M    1.5139 0
H, KJ/KG         -382.75
U, KJ/KG         -761.46
G, KJ/KG        -11023.4
S, KJ/(KG)(K)     8.2483

M, (1/n)          28.322
(dLV/dLP)t      -1.00000
(dLV/dLT)p        1.0000
Cp, KJ/(KG)(K)    1.2910
GAMMAs            1.2943
SON VEL,M/SEC      700.1

MOLE FRACTIONS

*Ar             8.8990-3
*CO             8.2916-9
*CO2            5.0066-2
COOH            1.436-14
*H              3.853-11
HNO             1.555-11
HNO2            6.9544-8
HNO3            1.819-10
HO2             3.1687-8
*H2             9.5606-9
HCOOH           3.021-15
H2O             9.9523-2
H2O2            3.8477-9
NH3             5.987-16
*NO             2.4752-4
NO2             4.6319-6
NO3             2.647-12
*N2             7.4186-1
N2O             3.9391-8
N2O3            3.462-14
*O              1.9437-8
*OH             6.0625-6
*O2             9.9396-2
O3              3.606-11

* THERMODYNAMIC PROPERTIES FITTED TO 20000.K