

NASA-GLENN CHEMICAL EQUILIBRIUM PROGRAM CEA2, FEBRUARY 5, 2004
BY  BONNIE MCBRIDE AND SANFORD GORDON
REFS: NASA RP-1311, PART I, 1994 AND NASA RP-1311, PART II, 1996

*******************************************************************************


### CEA analysis performed on Wed 12-Apr-2023 15:34:23

# Problem Type: "Entropy and Volume (or Density)"

prob case=test___________1609 sv

# Entropy (S/R) (1 value):
s/r= 0.992036255698232
# Density (1 value):
rho,kg/m**3= 2.2709

# Equivalence based on Fuel/Oxid. wt ratio (Eq 9.19*) (1 value):
phi= 0.5

# You selected the following fuels and oxidizers:
reac
fuel CH4              mole=100.0000  t,k=1500.000
oxid Air              mole=100.0000  t,k=1500.000

# You selected these options for output:
# short version of output
output short
# Proportions of any products will be expressed as Mole Fractions.
# Heat will be expressed as siunits
output siunits
# Trace variable:
output trace=1e-16

# Input prepared by this script:/var/www/sites/cearun.grc.nasa.gov/cgi-bin/CEARU
N/prepareInputFile.cgi

### IMPORTANT:  The following line is the end of your CEA input file!
end

THERMODYNAMIC EQUILIBRIUM PROPERTIES AT ASSIGNED

           ENTROPY AND VOLUME

CASE = test___________

REACTANT                       MOLES         ENERGY      TEMP
                                      KJ/KG-MOL      K
FUEL        CH4                        100.0000000     -6884.897   1500.000
OXIDANT     Air                        100.0000000     26151.700   1500.000

O/F=   34.47704  %FUEL=  2.818724  R,EQ.RATIO= 0.500760  PHI,EQ.RATIO= 0.500000

THERMODYNAMIC PROPERTIES

P, BAR            9.6727
T, K             1450.90
RHO, KG/CU M    2.2709 0
H, KJ/KG         -172.52
U, KJ/KG         -598.46
G, KJ/KG        -12140.0
S, KJ/(KG)(K)     8.2483

M, (1/n)          28.322
(dLV/dLP)t      -1.00000
(dLV/dLT)p        1.0001
Cp, KJ/(KG)(K)    1.3227
GAMMAs            1.2853
SON VEL,M/SEC      739.9

MOLE FRACTIONS

*Ar             8.8989-3
*CO             1.1673-7
*CO2            5.0066-2
COOH            3.744-13
*H              9.609-10
HNCO            1.941-16
HNO             1.781-10
HNO2            1.6623-7
HNO3            3.276-10
HO2             1.4228-7
*H2             9.7356-8
HCOOH           5.957-14
H2O             9.9511-2
H2O2            1.5227-8
*N              4.593-15
*NH             4.174-16
NH2             4.630-16
NH3             1.836-14
*NO             6.3647-4
NO2             8.5538-6
NO3             9.774-12
*N2             7.4166-1
N2O             1.2367-7
N2O3            2.016-13
N2O4            1.467-16
*O              2.0606-7
*OH             2.7999-5
*O2             9.9192-2
O3              2.077-10

* THERMODYNAMIC PROPERTIES FITTED TO 20000.K