

NASA-GLENN CHEMICAL EQUILIBRIUM PROGRAM CEA2, FEBRUARY 5, 2004
BY  BONNIE MCBRIDE AND SANFORD GORDON
REFS: NASA RP-1311, PART I, 1994 AND NASA RP-1311, PART II, 1996

*******************************************************************************


### CEA analysis performed on Wed 12-Apr-2023 15:33:04

# Problem Type: "Entropy and Volume (or Density)"

prob case=test___________1609 sv

# Entropy (S/R) (1 value):
s/r= 0.992036255698232
# Density (1 value):
rho,kg/m**3= 1.1355

# Equivalence based on Fuel/Oxid. wt ratio (Eq 9.19*) (1 value):
phi= 0.5

# You selected the following fuels and oxidizers:
reac
fuel CH4              mole=100.0000  t,k=1500.000
oxid Air              mole=100.0000  t,k=1500.000

# You selected these options for output:
# short version of output
output short
# Proportions of any products will be expressed as Mole Fractions.
# Heat will be expressed as siunits
output siunits
# Trace variable:
output trace=1e-16

# Input prepared by this script:/var/www/sites/cearun.grc.nasa.gov/cgi-bin/CEARU
N/prepareInputFile.cgi

### IMPORTANT:  The following line is the end of your CEA input file!
end

THERMODYNAMIC EQUILIBRIUM PROPERTIES AT ASSIGNED

           ENTROPY AND VOLUME

CASE = test___________

REACTANT                       MOLES         ENERGY      TEMP
                                      KJ/KG-MOL      K
FUEL        CH4                        100.0000000     -6884.897   1500.000
OXIDANT     Air                        100.0000000     26151.700   1500.000

O/F=   34.47704  %FUEL=  2.818724  R,EQ.RATIO= 0.500760  PHI,EQ.RATIO= 0.500000

THERMODYNAMIC PROPERTIES

P, BAR            3.9476
T, K             1184.22
RHO, KG/CU M    1.1355 0
H, KJ/KG         -518.22
U, KJ/KG         -865.87
G, KJ/KG        -10286.0
S, KJ/(KG)(K)     8.2483

M, (1/n)          28.322
(dLV/dLP)t      -1.00000
(dLV/dLT)p        1.0000
Cp, KJ/(KG)(K)    1.2692
GAMMAs            1.3009
SON VEL,M/SEC      672.5

MOLE FRACTIONS

*Ar             8.8990-3
*CO             9.559-10
*CO2            5.0066-2
COOH            1.053-15
*H              2.804-12
HNO             2.214-12
HNO2            3.5951-8
HNO3            1.216-10
HO2             9.5620-9
*H2             1.4450-9
HCOOH           2.838-16
H2O             9.9525-2
H2O2            1.3057-9
*NO             1.1557-4
NO2             2.8984-6
NO3             9.763-13
*N2             7.4192-1
N2O             1.6132-8
N2O3            9.081-15
*O              2.8368-9
*OH             1.7456-6
*O2             9.9465-2
O3              9.030-12

* THERMODYNAMIC PROPERTIES FITTED TO 20000.K