
 *******************************************************************************

         NASA-GLENN CHEMICAL EQUILIBRIUM PROGRAM CEA2, MAY 21, 2004
                   BY  BONNIE MCBRIDE AND SANFORD GORDON
      REFS: NASA RP-1311, PART I, 1994 AND NASA RP-1311, PART II, 1996

 *******************************************************************************



 problem    phi,eq.ratio=2.1,2.2,2.3,2.4,2.5,2.6,2.7,2.8,2.9,3,3.1,3.2,3.3,3.4,3.
 5,3.6,
       uv   rho,kg/m**3=1.1391,  t,k=3800
 react
   fuel=C2H2,acetylene moles=1 t,k=300
   oxid=O2 moles=2.5 t,k=300
   oxid=N2 moles=9.4048 t,k=300
 output
      trace=1e-16 siunits short
 end




         THERMODYNAMIC EQUILIBRIUM COMBUSTION PROPERTIES AT ASSIGNED

                                     VOLUME

 CASE =                

             REACTANT                       MOLES         ENERGY      TEMP
                                                         KJ/KG-MOL      K
 FUEL        C2H2,acetylene               1.0000000    225787.177    300.000
 OXIDANT     O2                           2.5000000     -2439.995    300.000
 OXIDANT     N2                           9.4048000     -2440.472    300.000

 O/F=    6.28142  %FUEL= 13.733580  R,EQ.RATIO= 2.100000  PHI,EQ.RATIO= 2.100000

 THERMODYNAMIC PROPERTIES

 P, BAR            11.024
 T, K             2930.74
 RHO, KG/CU M    1.1391 0
 H, KJ/KG         2085.78
 U, KJ/KG         1117.96
 G, KJ/KG        -27199.2
 S, KJ/(KG)(K)     9.9923

 M, (1/n)          25.178
 (dLV/dLP)t      -1.00342
 (dLV/dLT)p        1.0671
 Cp, KJ/(KG)(K)    1.9470
 GAMMAs            1.2341
 SON VEL,M/SEC     1092.9

 MOLE FRACTIONS

 *C              1.670-10
 *CH             8.437-11
 CH2             3.041-10
 CH3             1.1435-9
 CH2OH           2.032-11
 CH3O            4.590-12
 CH4             5.749-10
 CH3OH           2.227-12
 *CN             3.8453-8
 CNN             2.838-14
 *CO             2.5218-1
 *CO2            1.3420-2
 COOH            1.7857-7
 *C2             6.675-15
 C2H             4.719-13
 C2H2,acetylene  2.361-11
 C2H2,vinylidene 6.322-14
 CH2CO,ketene    3.330-11
 O(CH)2O         2.768-14
 C2H3,vinyl      5.627-15
 CH3CN           7.635-15
 CH3CO,acetyl    1.378-14
 C2H4            4.786-15
 CH3CHO,ethanal  4.685-16
 CNC             4.933-15
 OCCN            1.217-11
 C2N2            2.127-12
 C2O             8.410-11
 C3O2            3.078-13
 *H              1.1564-2
 HCN             3.1895-6
 HCO             2.6369-6
 HCCO            1.007-11
 HNC             5.2412-7
 HNCO            3.4868-7
 HNO             1.5503-7
 HNO2            1.1943-9
 HNO3            4.041-15
 HO2             3.4939-8
 *H2             9.1083-2
 HCHO,formaldehy 1.0399-7
 HCOOH           3.6563-8
 H2O             3.5169-2
 H2O2            7.5128-9
 *N              2.0455-6
 NCO             3.4164-8
 *NH             1.1242-6
 NH2             9.2846-7
 NH3             1.6834-6
 NH2OH           4.103-11
 *NO             3.4033-4
 NO2             6.1990-9
 NO3             6.437-16
 *N2             5.9458-1
 NCN             2.888-12
 N2H2            1.165-10
 N2H4            9.643-15
 N2O             5.5543-8
 N3              1.441-11
 N3H             8.167-12
 *O              1.0953-4
 *OH             1.5234-3
 *O2             1.6799-5
 O3              2.620-13

  * THERMODYNAMIC PROPERTIES FITTED TO 20000.K









         THERMODYNAMIC EQUILIBRIUM COMBUSTION PROPERTIES AT ASSIGNED

                                     VOLUME

 CASE =                

             REACTANT                       MOLES         ENERGY      TEMP
                                                         KJ/KG-MOL      K
 FUEL        C2H2,acetylene               1.0000000    225787.177    300.000
 OXIDANT     O2                           2.5000000     -2439.995    300.000
 OXIDANT     N2                           9.4048000     -2440.472    300.000

 O/F=    5.99590  %FUEL= 14.294080  R,EQ.RATIO= 2.200000  PHI,EQ.RATIO= 2.200000

 THERMODYNAMIC PROPERTIES

 P, BAR            11.050
 T, K             2902.92
 RHO, KG/CU M    1.1391 0
 H, KJ/KG         2137.09
 U, KJ/KG         1167.04
 G, KJ/KG        -27024.0
 S, KJ/(KG)(K)    10.0454

 M, (1/n)          24.882
 (dLV/dLP)t      -1.00312
 (dLV/dLT)p        1.0609
 Cp, KJ/(KG)(K)    1.9136
 GAMMAs            1.2398
 SON VEL,M/SEC     1096.7

 MOLE FRACTIONS

 *C              2.088-10
 *CH             1.184-10
 CH2             4.961-10
 CH3             2.1952-9
 CH2OH           2.506-11
 CH3O            5.552-12
 CH4             1.2805-9
 CH3OH           3.153-12
 *CN             5.3329-8
 CNN             3.597-14
 *CO             2.6378-1
 *CO2            9.4004-3
 COOH            1.2467-7
 *C2             1.330-14
 C2H             1.113-12
 C2H2,acetylene  6.795-11
 C2H2,vinylidene 1.700-13
 CH2CO,ketene    6.441-11
 O(CH)2O         3.420-14
 C2H3,vinyl      1.691-14
 CH3CN           2.484-14
 CH3CO,acetyl    2.800-14
 C2H4            1.692-14
 CH3CHO,ethanal  1.085-15
 CNC             1.029-14
 OCCN            1.843-11
 C2N2            5.082-12
 C2O             1.243-10
 C3O2            5.274-13
 *H              1.1268-2
 HCN             5.3237-6
 HCO             2.7768-6
 HCCN            1.993-16
 HCCO            1.667-11
 HNC             8.5399-7
 HNCO            3.8661-7
 HNO             9.4461-8
 HNO2            4.701-10
 HNO3            9.747-16
 HO2             1.3432-8
 *H2             1.0384-1
 HCHO,formaldehy 1.2419-7
 HCOOH           2.8997-8
 H2O             2.6628-2
 H2O2            3.2732-9
 *N              1.6748-6
 NCO             3.2052-8
 *NH             1.0333-6
 NH2             9.7600-7
 NH3             2.0774-6
 NH2OH           3.029-11
 *NO             1.9548-4
 NO2             2.1868-9
 NO3             1.340-16
 *N2             5.8384-1
 NCN             3.857-12
 N2H2            1.196-10
 N2H4            1.189-14
 N2O             3.1605-8
 N3              1.177-11
 N3H             7.545-12
 *O              5.9417-5
 *OH             9.6434-4
 *O2             6.0631-6
 O3              5.325-14

  * THERMODYNAMIC PROPERTIES FITTED TO 20000.K









         THERMODYNAMIC EQUILIBRIUM COMBUSTION PROPERTIES AT ASSIGNED

                                     VOLUME

 CASE =                

             REACTANT                       MOLES         ENERGY      TEMP
                                                         KJ/KG-MOL      K
 FUEL        C2H2,acetylene               1.0000000    225787.177    300.000
 OXIDANT     O2                           2.5000000     -2439.995    300.000
 OXIDANT     N2                           9.4048000     -2440.472    300.000

 O/F=    5.73521  %FUEL= 14.847343  R,EQ.RATIO= 2.300000  PHI,EQ.RATIO= 2.300000

 THERMODYNAMIC PROPERTIES

 P, BAR            11.070
 T, K             2874.69
 RHO, KG/CU M    1.1391 0
 H, KJ/KG         2187.30
 U, KJ/KG         1215.49
 G, KJ/KG        -26833.8
 S, KJ/(KG)(K)    10.0954

 M, (1/n)          24.595
 (dLV/dLP)t      -1.00287
 (dLV/dLT)p        1.0558
 Cp, KJ/(KG)(K)    1.8880
 GAMMAs            1.2449
 SON VEL,M/SEC     1099.9

 MOLE FRACTIONS

 *C              2.872-10
 *CH             1.816-10
 CH2             8.806-10
 CH3             4.5674-9
 CH2OH           3.002-11
 CH3O            6.524-12
 CH4             3.0776-9
 CH3OH           4.317-12
 *CN             8.1640-8
 CNN             5.017-14
 *CO             2.7460-1
 *CO2            5.8859-3
 COOH            7.7029-8
 *C2             3.230-14
 C2H             3.184-12
 C2H2,acetylene  2.368-10
 C2H2,vinylidene 5.520-13
 CH2CO,ketene    1.354-10
 O(CH)2O         4.119-14
 C2H3,vinyl      6.099-14
 CH3CN           9.732-14
 CH3CO,acetyl    6.133-14
 C2H4            7.148-14
 CH3CHO,ethanal  2.693-15
 CCN             2.177-16
 CNC             2.623-14
 OCCN            3.068-11
 C2N2            1.490-11
 C2O             2.018-10
 C3O2            9.909-13
 *H              1.0870-2
 HCN             9.7751-6
 HCO             2.8823-6
 HCCN            5.538-16
 HCCO            3.012-11
 HNC             1.5295-6
 HNCO            4.2341-7
 HNO             5.1065-8
 HNO2            1.473-10
 HNO3            1.675-16
 HO2             4.1049-9
 *H2             1.1669-1
 HCHO,formaldehy 1.4540-7
 HCOOH           2.0245-8
 H2O             1.7842-2
 H2O2            1.1275-9
 *N              1.3628-6
 NCO             2.9821-8
 *NH             9.3844-7
 NH2             1.0086-6
 NH3             2.5095-6
 NH2OH           1.959-11
 *NO             1.0038-4
 NO2             6.176-10
 *N2             5.7342-1
 NCN             5.679-12
 N2H2            1.206-10
 N2H4            1.421-14
 N2O             1.6076-8
 N3              9.556-12
 N3H             6.891-12
 *O              2.8755-5
 *OH             5.4215-4
 *O2             1.7530-6
 O3              7.743-15

  * THERMODYNAMIC PROPERTIES FITTED TO 20000.K









         THERMODYNAMIC EQUILIBRIUM COMBUSTION PROPERTIES AT ASSIGNED

                                     VOLUME

 CASE =                

             REACTANT                       MOLES         ENERGY      TEMP
                                                         KJ/KG-MOL      K
 FUEL        C2H2,acetylene               1.0000000    225787.177    300.000
 OXIDANT     O2                           2.5000000     -2439.995    300.000
 OXIDANT     N2                           9.4048000     -2440.472    300.000

 O/F=    5.49624  %FUEL= 15.393509  R,EQ.RATIO= 2.400000  PHI,EQ.RATIO= 2.400000

 THERMODYNAMIC PROPERTIES

 P, BAR            11.086
 T, K             2846.34
 RHO, KG/CU M    1.1391 0
 H, KJ/KG         2236.51
 U, KJ/KG         1263.31
 G, KJ/KG        -26629.7
 S, KJ/(KG)(K)    10.1415

 M, (1/n)          24.318
 (dLV/dLP)t      -1.00267
 (dLV/dLT)p        1.0515
 Cp, KJ/(KG)(K)    1.8678
 GAMMAs            1.2496
 SON VEL,M/SEC     1102.8

 MOLE FRACTIONS

 *C              5.159-10
 *CH             3.621-10
 CH2             2.0232-9
 CH3             1.2251-8
 CH2OH           3.511-11
 CH3O            7.480-12
 CH4             9.4954-9
 CH3OH           5.743-12
 *CN             1.6378-7
 CNN             9.151-14
 *CO             2.8472-1
 *CO2            2.7826-3
 COOH            3.5641-8
 *C2             1.347-13
 C2H             1.559-11
 C2H2,acetylene  1.4070-9
 C2H2,vinylidene 3.052-12
 CH2CO,ketene    3.681-10
 O(CH)2O         4.855-14
 C2H3,vinyl      3.725-13
 CH3CN           6.470-13
 CH3CO,acetyl    1.725-13
 C2H4            5.095-13
 CH3CHO,ethanal  8.547-15
 CH3COOH         1.034-16
 C2H5            2.349-16
 CCN             9.081-16
 CNC             1.149-13
 OCCN            6.673-11
 C2N2            7.539-11
 C2O             4.277-10
 *C3             7.342-16
 C3H3,2-propynl  8.146-16
 C3O2            2.426-12
 *H              1.0399-2
 HCN             2.3439-5
 HCO             2.9565-6
 HCCN            2.632-15
 HCCO            7.066-11
 HNC             3.5748-6
 HNCO            4.5889-7
 HNO             2.0719-8
 HNO2            2.622-11
 HO2             7.125-10
 *H2             1.2949-1
 HCHO,formaldehy 1.6739-7
 HCOOH           1.0533-8
 H2O             8.9463-3
 H2O2            2.195-10
 *N              1.1041-6
 NCO             2.7565-8
 *NH             8.4410-7
 NH2             1.0273-6
 NH3             2.9759-6
 NH2OH           9.400-12
 *NO             3.8944-5
 NO2             9.966-11
 *N2             5.6335-1
 NCN             1.095-11
 N2H2            1.198-10
 N2H4            1.653-14
 N2O             6.1778-9
 N3              7.727-12
 N3H             6.236-12
 *O              1.0497-5
 *OH             2.2893-4
 *O2             2.8972-7
 O3              4.858-16

  * THERMODYNAMIC PROPERTIES FITTED TO 20000.K









         THERMODYNAMIC EQUILIBRIUM COMBUSTION PROPERTIES AT ASSIGNED

                                     VOLUME

 CASE =                

             REACTANT                       MOLES         ENERGY      TEMP
                                                         KJ/KG-MOL      K
 FUEL        C2H2,acetylene               1.0000000    225787.177    300.000
 OXIDANT     O2                           2.5000000     -2439.995    300.000
 OXIDANT     N2                           9.4048000     -2440.472    300.000

 O/F=    5.27639  %FUEL= 15.932713  R,EQ.RATIO= 2.500000  PHI,EQ.RATIO= 2.500000

 THERMODYNAMIC PROPERTIES

 P, BAR            11.090
 T, K             2817.64
 RHO, KG/CU M    1.1391 0
 H, KJ/KG         2284.09
 U, KJ/KG         1310.53
 G, KJ/KG        -26402.1
 S, KJ/(KG)(K)    10.1809

 M, (1/n)          24.063
 (dLV/dLP)t      -1.00275
 (dLV/dLT)p        1.0476
 Cp, KJ/(KG)(K)    1.8513
 GAMMAs            1.2533
 SON VEL,M/SEC     1104.6

 MOLE FRACTIONS

 *C              8.7266-9
 *CH             6.7532-9
 CH2             4.3255-8
 CH3             3.0433-7
 CH2OH           3.983-11
 CH3O            8.314-12
 CH4             2.6999-7
 CH3OH           7.372-12
 *CN             3.1038-6
 CNN             1.572-12
 *CO             2.9374-1
 *CO2            1.3730-4
 COOH            1.7032-9
 *C2             5.014-11
 C2H             6.7832-9
 C2H2,acetylene  7.4050-7
 C2H2,vinylidene 1.4905-9
 CH2CO,ketene    9.2972-9
 O(CH)2O         5.568-14
 C2H3,vinyl      1.997-10
 CH3CN           3.786-10
 CH3CO,acetyl    4.470-12
 C2H4            3.173-10
 C2H4O,ethylen-o 1.480-16
 CH3CHO,ethanal  2.483-13
 CH3COOH         1.423-16
 C2H5            1.488-13
 C2H6            2.287-14
 CCN             3.382-13
 CNC             4.502-11
 OCCN            1.3648-9
 C2N2            3.4265-8
 C2O             8.5175-9
 *C3             6.321-12
 C3H3,1-propynl  1.251-14
 C3H3,2-propynl  9.887-12
 C3H4,allene     1.785-13
 C3H4,propyne    3.874-13
 C3H4,cyclo-     3.427-15
 C3H5,allyl      1.350-15
 C3H6,propylene  1.903-16
 CNCOCN          3.743-15
 C3O2            5.566-11
 *C4             1.473-16
 C4H2,butadiyne  1.603-12
 C4N2            6.045-14
 *H              9.8482-3
 HCN             5.2885-4
 HCO             2.9869-6
 HCCN            1.110-12
 HCCO            1.5478-9
 HNC             7.8557-5
 HNCO            4.9074-7
 HNO             8.709-10
 HNO2            5.065-14
 HO2             1.341-12
 *H2             1.4154-1
 HCHO,formaldehy 1.8869-7
 HCOOH           5.627-10
 H2O             4.6337-4
 H2O2            4.605-13
 *N              8.8927-7
 NCO             2.5257-8
 *NH             7.5003-7
 NH2             1.0279-6
 NH3             3.4498-6
 NH2OH           4.607-13
 *NO             1.5780-6
 NO2             1.757-13
 *N2             5.5363-1
 NCN             1.992-10
 N2H2            1.168-10
 N2H4            1.862-14
 N2O             2.479-10
 N3              6.210-12
 N3H             5.575-12
 *O              3.9949-7
 *OH             1.0026-5
 *O2             5.235-10

  * THERMODYNAMIC PROPERTIES FITTED TO 20000.K









         THERMODYNAMIC EQUILIBRIUM COMBUSTION PROPERTIES AT ASSIGNED

                                     VOLUME

 CASE =                

             REACTANT                       MOLES         ENERGY      TEMP
                                                         KJ/KG-MOL      K
 FUEL        C2H2,acetylene               1.0000000    225787.177    300.000
 OXIDANT     O2                           2.5000000     -2439.995    300.000
 OXIDANT     N2                           9.4048000     -2440.472    300.000

 O/F=    5.07346  %FUEL= 16.465089  R,EQ.RATIO= 2.600000  PHI,EQ.RATIO= 2.600000

 THERMODYNAMIC PROPERTIES

 P, BAR            10.945
 T, K             2782.09
 RHO, KG/CU M    1.1391 0
 H, KJ/KG         2318.03
 U, KJ/KG         1357.14
 G, KJ/KG        -26067.0
 S, KJ/(KG)(K)    10.2028

 M, (1/n)          24.073
 (dLV/dLP)t      -1.00222
 (dLV/dLT)p        1.0433
 Cp, KJ/(KG)(K)    1.8380
 GAMMAs            1.2536
 SON VEL,M/SEC     1097.5

 MOLE FRACTIONS

 *C              1.1899-7
 *CH             9.8005-8
 CH2             7.0160-7
 CH3             5.6137-6
 CH2OH           3.721-11
 CH3O            7.569-12
 CH4             5.5577-6
 CH3OH           7.572-12
 *CN             4.8710-5
 CNN             2.170-11
 *CO             2.9271-1
 *CO2            7.3472-6
 COOH            8.228-11
 *C2             1.2840-8
 C2H             1.9902-6
 C2H2,acetylene  2.5999-4
 C2H2,vinylidene 4.7596-7
 CH2CO,ketene    1.7601-7
 O(CH)2O         5.301-14
 C2H3,vinyl      6.7496-8
 CH3CN           1.4247-7
 CH3CO,acetyl    8.218-11
 C2H4            1.2187-7
 C2H4O,ethylen-o 2.773-15
 CH3CHO,ethanal  4.965-12
 CH3COOH         1.508-16
 C2H5            5.490-11
 C2H6            9.365-12
 CCN             8.633-11
 CNC             1.2255-8
 OCCN            2.2293-8
 C2N2            1.1222-5
 C2O             1.3498-7
 *C3             3.2367-8
 C3H3,1-propynl  7.759-11
 C3H3,2-propynl  6.5040-8
 C3H4,allene     1.2606-9
 C3H4,propyne    2.7477-9
 C3H4,cyclo-     2.311-11
 C3H5,allyl      9.597-12
 C3H6,propylene  1.463-12
 C3H6,cyclo-     9.854-15
 C3H7,n-propyl   2.382-16
 C3H7,i-propyl   1.559-16
 CNCOCN          1.165-12
 C3O2            9.976-10
 *C4             1.334-11
 C4H2,butadiyne  1.9690-7
 C4H4,1,3-cyclo- 6.859-14
 C4H6,butadiene  7.514-14
 C4H6,1butyne    1.258-14
 C4H6,2butyne    6.541-15
 C4H6,cyclo-     2.690-16
 C4N2            6.9377-9
 *C5             1.677-11
 C5H6,1,3cyclo-  4.874-16
 C6H2            1.575-10
 C6H5,phenyl     1.688-16
 C6H6            2.086-16
 *H              8.7605-3
 HCN             9.7341-3
 HCO             2.7251-6
 HCCN            3.120-10
 HCCO            2.6021-8
 HNC             1.3983-3
 HNCO            4.7950-7
 HNO             3.771-11
 HNO2            1.120-16
 HO2             2.878-15
 *H2             1.4197-1
 HCHO,formaldehy 1.8595-7
 HCOOH           2.943-11
 H2O             2.4663-5
 H2O2            1.066-15
 *N              6.8280-7
 NCO             2.1579-8
 *NH             6.1320-7
 NH2             9.1831-7
 NH3             3.4924-6
 NH2OH           2.142-14
 *NO             6.9362-8
 NO2             3.677-16
 *N2             5.4505-1
 NCN             2.9572-9
 N2H2            1.007-10
 N2H4            1.702-14
 N2O             1.072-11
 N3              4.722-12
 N3H             4.561-12
 *O              1.6277-8
 *OH             4.5893-7
 *O2             1.135-12

  * THERMODYNAMIC PROPERTIES FITTED TO 20000.K









         THERMODYNAMIC EQUILIBRIUM COMBUSTION PROPERTIES AT ASSIGNED

                                     VOLUME

 CASE =                

             REACTANT                       MOLES         ENERGY      TEMP
                                                         KJ/KG-MOL      K
 FUEL        C2H2,acetylene               1.0000000    225787.177    300.000
 OXIDANT     O2                           2.5000000     -2439.995    300.000
 OXIDANT     N2                           9.4048000     -2440.472    300.000

 O/F=    4.88555  %FUEL= 16.990763  R,EQ.RATIO= 2.700000  PHI,EQ.RATIO= 2.700000

 THERMODYNAMIC PROPERTIES

 P, BAR            10.799
 T, K             2747.40
 RHO, KG/CU M    1.1391 0
 H, KJ/KG         2351.20
 U, KJ/KG         1403.17
 G, KJ/KG        -25724.8
 S, KJ/(KG)(K)    10.2191

 M, (1/n)          24.095
 (dLV/dLP)t      -1.00198
 (dLV/dLT)p        1.0393
 Cp, KJ/(KG)(K)    1.8269
 GAMMAs            1.2532
 SON VEL,M/SEC     1090.0

 MOLE FRACTIONS

 *C              1.6842-7
 *CH             1.4727-7
 CH2             1.1754-6
 CH3             1.0670-5
 CH2OH           3.443-11
 CH3O            6.827-12
 CH4             1.1763-5
 CH3OH           7.686-12
 *CN             7.9380-5
 CNN             3.111-11
 *CO             2.9115-1
 *CO2            3.7740-6
 COOH            3.806-11
 *C2             3.5420-8
 C2H             6.2757-6
 C2H2,acetylene  9.7876-4
 C2H2,vinylidene 1.6294-6
 CH2CO,ketene    3.4352-7
 O(CH)2O         5.003-14
 C2H3,vinyl      2.4394-7
 CH3CN           5.7357-7
 CH3CO,acetyl    1.554-10
 C2H4            4.9944-7
 C2H4O,ethylen-o 5.329-15
 CH3CHO,ethanal  1.018-11
 CH3COOH         1.576-16
 C2H5            2.156-10
 C2H6            4.071-11
 C2H5OH          1.347-16
 CCN             2.375-10
 CNC             3.5948-8
 OCCN            3.7733-8
 C2N2            3.9625-5
 C2O             2.2163-7
 *C3             1.8530-7
 C3H3,1-propynl  5.340-10
 C3H3,2-propynl  4.7491-7
 C3H4,allene     9.8611-9
 C3H4,propyne    2.1582-8
 C3H4,cyclo-     1.725-10
 C3H5,allyl      7.537-11
 C3H6,propylene  1.239-11
 C3H6,cyclo-     8.168-14
 C3H7,n-propyl   1.915-15
 C3H7,i-propyl   1.263-15
 C3H8            3.512-16
 CNCOCN          3.903-12
 C3O2            1.8490-9
 *C4             1.402-10
 C4H2,butadiyne  2.7933-6
 C4H4,1,3-cyclo- 9.958-13
 C4H6,butadiene  1.224-12
 C4H6,1butyne    2.027-13
 C4H6,2butyne    1.067-13
 C4H6,cyclo-     4.345-15
 C4N2            9.2475-8
 *C5             3.603-10
 C5H6,1,3cyclo-  1.642-14
 C6H2            8.4132-9
 C6H5,phenyl     1.061-14
 C6H6            1.494-14
 *H              7.7758-3
 HCN             1.8560-2
 HCO             2.4754-6
 HCCN            9.430-10
 HCCO            4.5208-8
 HNC             2.5782-3
 HNCO            4.6665-7
 HNO             1.567-11
 HO2             5.696-16
 *H2             1.4173-1
 HCHO,formaldehy 1.8202-7
 HCOOH           1.471-11
 H2O             1.2563-5
 H2O2            2.272-16
 *N              5.2452-7
 NCO             1.8408-8
 *NH             5.0030-7
 NH2             8.1677-7
 NH3             3.5111-6
 NH2OH           9.514-15
 *NO             2.9329-8
 *N2             5.3704-1
 NCN             4.5600-9
 N2H2            8.640-11
 N2H4            1.542-14
 N2O             4.464-12
 N3              3.594-12
 N3H             3.726-12
 *O              6.3782-9
 *OH             2.0151-7
 *O2             2.274-13

  * THERMODYNAMIC PROPERTIES FITTED TO 20000.K









         THERMODYNAMIC EQUILIBRIUM COMBUSTION PROPERTIES AT ASSIGNED

                                     VOLUME

 CASE =                

             REACTANT                       MOLES         ENERGY      TEMP
                                                         KJ/KG-MOL      K
 FUEL        C2H2,acetylene               1.0000000    225787.177    300.000
 OXIDANT     O2                           2.5000000     -2439.995    300.000
 OXIDANT     N2                           9.4048000     -2440.472    300.000

 O/F=    4.71107  %FUEL= 17.509863  R,EQ.RATIO= 2.800000  PHI,EQ.RATIO= 2.800000

 THERMODYNAMIC PROPERTIES

 P, BAR            10.658
 T, K             2713.89
 RHO, KG/CU M    1.1391 0
 H, KJ/KG         2384.28
 U, KJ/KG         1448.63
 G, KJ/KG        -25387.1
 S, KJ/(KG)(K)    10.2331

 M, (1/n)          24.117
 (dLV/dLP)t      -1.00178
 (dLV/dLT)p        1.0357
 Cp, KJ/(KG)(K)    1.8179
 GAMMAs            1.2526
 SON VEL,M/SEC     1082.6

 MOLE FRACTIONS

 *C              1.7985-7
 *CH             1.6685-7
 CH2             1.4829-6
 CH3             1.5251-5
 CH2OH           3.188-11
 CH3O            6.163-12
 CH4             1.8708-5
 CH3OH           7.798-12
 *CN             9.7502-5
 CNN             3.367-11
 *CO             2.8959-1
 *CO2            2.5773-6
 COOH            2.342-11
 *C2             5.5455-8
 C2H             1.1217-5
 C2H2,acetylene  2.0848-3
 C2H2,vinylidene 3.1584-6
 CH2CO,ketene    5.0428-7
 O(CH)2O         4.724-14
 C2H3,vinyl      4.9895-7
 CH3CN           1.3061-6
 CH3CO,acetyl    2.211-10
 C2H4            1.1570-6
 C2H4O,ethylen-o 7.703-15
 CH3CHO,ethanal  1.570-11
 CH3COOH         1.647-16
 C2H5            4.786-10
 C2H6            9.998-11
 C2H5OH          2.120-16
 CCN             3.709-10
 CNC             5.9835-8
 OCCN            4.8128-8
 C2N2            7.9294-5
 C2O             2.7420-7
 *C3             4.5259-7
 C3H3,1-propynl  1.5652-9
 C3H3,2-propynl  1.4760-6
 C3H4,allene     3.2810-8
 C3H4,propyne    7.2098-8
 C3H4,cyclo-     5.481-10
 C3H5,allyl      2.517-10
 C3H6,propylene  4.457-11
 C3H6,cyclo-     2.878-13
 C3H6O,acetone   1.652-16
 C3H6O,propanal  2.004-16
 C3H7,n-propyl   6.549-15
 C3H7,i-propyl   4.348-15
 C3H8            1.330-15
 CNCOCN          7.415-12
 C3O2            2.5800-9
 *C4             4.735-10
 C4H2,butadiyne  1.2691-5
 C4H4,1,3-cyclo- 4.628-12
 C4H6,butadiene  6.380-12
 C4H6,1butyne    1.045-12
 C4H6,2butyne    5.567-13
 C4H6,cyclo-     2.244-14
 C4H8,1-butene   5.435-16
 C4H8,cis2-buten 1.785-16
 C4H8,tr2-butene 2.022-16
 C4H8,isobutene  2.019-16
 C4N2            3.9538-7
 *C5             1.8697-9
 C5H6,1,3cyclo-  1.331-13
 C6H2            8.1485-8
 C6H5,phenyl     1.207-13
 C6H6            1.934-13
 C7H7,benzyl     1.174-16
 *H              6.9079-3
 HCN             2.6630-2
 HCO             2.2502-6
 HCCN            1.6165-9
 HCCO            5.9145-8
 HNC             3.5784-3
 HNCO            4.5437-7
 HNO             8.679-12
 HO2             1.998-16
 *H2             1.4143-1
 HCHO,formaldehy 1.7817-7
 HCOOH           9.770-12
 H2O             8.5045-6
 *N              4.0403-7
 NCO             1.5733-8
 *NH             4.0901-7
 NH2             7.2726-7
 NH3             3.5295-6
 NH2OH           5.625-15
 *NO             1.6521-8
 *N2             5.2951-1
 NCN             5.3048-9
 N2H2            7.431-11
 N2H4            1.398-14
 N2O             2.477-12
 N3              2.745-12
 N3H             3.053-12
 *O              3.3308-9
 *OH             1.1777-7
 *O2             8.077-14

  * THERMODYNAMIC PROPERTIES FITTED TO 20000.K









         THERMODYNAMIC EQUILIBRIUM COMBUSTION PROPERTIES AT ASSIGNED

                                     VOLUME

 CASE =                

             REACTANT                       MOLES         ENERGY      TEMP
                                                         KJ/KG-MOL      K
 FUEL        C2H2,acetylene               1.0000000    225787.177    300.000
 OXIDANT     O2                           2.5000000     -2439.995    300.000
 OXIDANT     N2                           9.4048000     -2440.472    300.000

 O/F=    4.54862  %FUEL= 18.022512  R,EQ.RATIO= 2.900000  PHI,EQ.RATIO= 2.900000

 THERMODYNAMIC PROPERTIES

 P, BAR            10.552
 T, K             2688.95
 RHO, KG/CU M    1.1391 0
 H, KJ/KG         2419.89
 U, KJ/KG         1493.51
 G, KJ/KG        -25129.7
 S, KJ/(KG)(K)    10.2455

 M, (1/n)          24.134
 MW, MOL WT        24.084
 (dLV/dLP)t      -1.00165
 (dLV/dLT)p        1.0321
 Cp, KJ/(KG)(K)    2.3288
 GAMMAs            1.1847
 SON VEL,M/SEC     1047.6

 MOLE FRACTIONS

 *C              1.7572-7
 *CH             1.7101-7
 CH2             1.6539-6
 CH3             1.8760-5
 CH2OH           3.022-11
 CH3O            5.731-12
 CH4             2.5032-5
 CH3OH           7.949-12
 *CN             1.0588-4
 CNN             3.320-11
 *CO             2.8741-1
 *CO2            2.0608-6
 COOH            1.736-11
 *C2             6.7503-8
 C2H             1.5143-5
 C2H2,acetylene  3.2255-3
 C2H2,vinylidene 4.5484-6
 CH2CO,ketene    6.3034-7
 O(CH)2O         4.527-14
 C2H3,vinyl      7.5062-7
 CH3CN           2.1306-6
 CH3CO,acetyl    2.706-10
 C2H4            1.9189-6
 C2H4O,ethylen-o 9.572-15
 CH3CHO,ethanal  2.048-11
 CH3COOH         1.714-16
 C2H5            7.708-10
 C2H6            1.743-10
 C2H5OH          2.827-16
 CCN             4.504-10
 CNC             7.6251-8
 OCCN            5.3715-8
 C2N2            1.1616-4
 C2O             2.9924-7
 *C3             7.1950-7
 C3H3,1-propynl  2.8831-9
 C3H3,2-propynl  2.8428-6
 C3H4,allene     6.6747-8
 C3H4,propyne    1.4712-7
 C3H4,cyclo-     1.0766-9
 C3H5,allyl      5.151-10
 C3H6,propylene  9.680-11
 C3H6,cyclo-     6.152-13
 C3H6O,acetone   2.848-16
 C3H6O,propanal  3.400-16
 C3H7,n-propyl   1.372-14
 C3H7,i-propyl   9.158-15
 C3H8            3.019-15
 CNCOCN          1.043-11
 C3O2            3.0812-9
 *C4             8.969-10
 C4H2,butadiyne  3.0299-5
 C4H4,1,3-cyclo- 1.131-11
 C4H6,butadiene  1.712-11
 C4H6,1butyne    2.777-12
 C4H6,2butyne    1.493-12
 C4H6,cyclo-     5.977-14
 C4H8,1-butene   1.537-15
 C4H8,cis2-buten 5.074-16
 C4H8,tr2-butene 5.745-16
 C4H8,isobutene  5.750-16
 C4N2            8.9499-7
 *C5             4.5738-9
 C5H6,1,3cyclo-  4.646-13
 C6H2            3.0009-7
 C6H5,phenyl     5.069-13
 C6H6            8.982-13
 C7H7,benzyl     6.679-16
 *H              6.3185-3
 HCN             3.2639-2
 HCO             2.0916-6
 HCCN            2.1128-9
 HCCO            6.7537-8
 HNC             4.2764-3
 HNCO            4.4470-7
 HNO             5.938-12
 HO2             1.036-16
 *H2             1.4171-1
 HCHO,formaldehy 1.7570-7
 HCOOH           7.695-12
 H2O             6.8027-6
 *N              3.3039-7
 NCO             1.3905-8
 *NH             3.5095-7
 NH2             6.6778-7
 NH3             3.5641-6
 NH2OH           4.069-15
 *NO             1.1418-8
 *N2             5.2201-1
 NCN             5.5240-9
 N2H2            6.642-11
 N2H4            1.308-14
 N2O             1.692-12
 N3              2.228-12
 N3H             2.620-12
 *O              2.1749-9
 *OH             8.4010-8
 *O2             4.218-14
 C(gr)           2.0582-3

  * THERMODYNAMIC PROPERTIES FITTED TO 20000.K









         THERMODYNAMIC EQUILIBRIUM COMBUSTION PROPERTIES AT ASSIGNED

                                     VOLUME

 CASE =                

             REACTANT                       MOLES         ENERGY      TEMP
                                                         KJ/KG-MOL      K
 FUEL        C2H2,acetylene               1.0000000    225787.177    300.000
 OXIDANT     O2                           2.5000000     -2439.995    300.000
 OXIDANT     N2                           9.4048000     -2440.472    300.000

 O/F=    4.39700  %FUEL= 18.528827  R,EQ.RATIO= 3.000000  PHI,EQ.RATIO= 3.000000

 THERMODYNAMIC PROPERTIES

 P, BAR            10.567
 T, K             2693.61
 RHO, KG/CU M    1.1391 0
 H, KJ/KG         2465.52
 U, KJ/KG         1537.85
 G, KJ/KG        -25163.8
 S, KJ/(KG)(K)    10.2573

 M, (1/n)          24.142
 MW, MOL WT        23.853
 (dLV/dLP)t      -1.00171
 (dLV/dLT)p        1.0331
 Cp, KJ/(KG)(K)    2.3587
 GAMMAs            1.1822
 SON VEL,M/SEC     1047.2

 MOLE FRACTIONS

 *C              1.8359-7
 *CH             1.7963-7
 CH2             1.7346-6
 CH3             1.9594-5
 CH2OH           3.132-11
 CH3O            5.961-12
 CH4             2.6107-5
 CH3OH           8.244-12
 *CN             1.0793-4
 CNN             3.429-11
 *CO             2.8289-1
 *CO2            1.9961-6
 COOH            1.730-11
 *C2             7.1092-8
 C2H             1.5866-5
 C2H2,acetylene  3.3415-3
 C2H2,vinylidene 4.7760-6
 CH2CO,ketene    6.4228-7
 O(CH)2O         4.582-14
 C2H3,vinyl      7.9303-7
 CH3CN           2.2062-6
 CH3CO,acetyl    2.808-10
 C2H4            2.0192-6
 C2H4O,ethylen-o 1.005-14
 CH3CHO,ethanal  2.131-11
 CH3COOH         1.758-16
 C2H5            8.274-10
 C2H6            1.870-10
 C2H5OH          3.014-16
 CCN             4.722-10
 CNC             7.9231-8
 OCCN            5.4069-8
 C2N2            1.1701-4
 C2O             3.0395-7
 *C3             7.5705-7
 C3H3,1-propynl  3.0804-9
 C3H3,2-propynl  3.0119-6
 C3H4,allene     7.1005-8
 C3H4,propyne    1.5642-7
 C3H4,cyclo-     1.1529-9
 C3H5,allyl      5.553-10
 C3H6,propylene  1.047-10
 C3H6,cyclo-     6.672-13
 C3H6O,acetone   3.039-16
 C3H6O,propanal  3.639-16
 C3H7,n-propyl   1.515-14
 C3H7,i-propyl   1.010-14
 C3H8            3.332-15
 CNCOCN          1.051-11
 C3O2            3.0544-9
 *C4             9.593-10
 C4H2,butadiyne  3.1927-5
 C4H4,1,3-cyclo- 1.221-11
 C4H6,butadiene  1.869-11
 C4H6,1butyne    3.037-12
 C4H6,2butyne    1.630-12
 C4H6,cyclo-     6.534-14
 C4H8,1-butene   1.710-15
 C4H8,cis2-buten 5.640-16
 C4H8,tr2-butene 6.385-16
 C4H8,isobutene  6.388-16
 C4N2            9.1676-7
 *C5             4.8976-9
 C5H6,1,3cyclo-  5.071-13
 C6H2            3.2167-7
 C6H5,phenyl     5.534-13
 C6H6            9.761-13
 C7H7,benzyl     7.446-16
 *H              6.4541-3
 HCN             3.2990-2
 HCO             2.1144-6
 HCCN            2.2165-9
 HCCO            6.9001-8
 HNC             4.3429-3
 HNCO            4.4306-7
 HNO             6.024-12
 HO2             1.052-16
 *H2             1.4435-1
 HCHO,formaldehy 1.7819-7
 HCOOH           7.692-12
 H2O             6.8308-6
 *N              3.3814-7
 NCO             1.3922-8
 *NH             3.6109-7
 NH2             6.8816-7
 NH3             3.6599-6
 NH2OH           4.203-15
 *NO             1.1397-8
 *N2             5.1329-1
 NCN             5.6480-9
 N2H2            6.847-11
 N2H4            1.376-14
 N2O             1.684-12
 N3              2.261-12
 N3H             2.670-12
 *O              2.2047-9
 *OH             8.4968-8
 *O2             4.213-14
 C(gr)           1.1986-2

  * THERMODYNAMIC PROPERTIES FITTED TO 20000.K









         THERMODYNAMIC EQUILIBRIUM COMBUSTION PROPERTIES AT ASSIGNED

                                     VOLUME

 CASE =                

             REACTANT                       MOLES         ENERGY      TEMP
                                                         KJ/KG-MOL      K
 FUEL        C2H2,acetylene               1.0000000    225787.177    300.000
 OXIDANT     O2                           2.5000000     -2439.995    300.000
 OXIDANT     N2                           9.4048000     -2440.472    300.000

 O/F=    4.25516  %FUEL= 19.028927  R,EQ.RATIO= 3.100000  PHI,EQ.RATIO= 3.100000

 THERMODYNAMIC PROPERTIES

 P, BAR            10.581
 T, K             2698.14
 RHO, KG/CU M    1.1391 0
 H, KJ/KG         2510.57
 U, KJ/KG         1581.64
 G, KJ/KG        -25196.5
 S, KJ/(KG)(K)    10.2690

 M, (1/n)          24.150
 MW, MOL WT        23.628
 (dLV/dLP)t      -1.00176
 (dLV/dLT)p        1.0340
 Cp, KJ/(KG)(K)    2.3882
 GAMMAs            1.1798
 SON VEL,M/SEC     1046.9

 MOLE FRACTIONS

 *C              1.9152-7
 *CH             1.8834-7
 CH2             1.8158-6
 CH3             2.0429-5
 CH2OH           3.241-11
 CH3O            6.190-12
 CH4             2.7178-5
 CH3OH           8.536-12
 *CN             1.0992-4
 CNN             3.538-11
 *CO             2.7851-1
 *CO2            1.9346-6
 COOH            1.724-11
 *C2             7.4733-8
 C2H             1.6595-5
 C2H2,acetylene  3.4567-3
 C2H2,vinylidene 5.0056-6
 CH2CO,ketene    6.5374-7
 O(CH)2O         4.633-14
 C2H3,vinyl      8.3601-7
 CH3CN           2.2809-6
 CH3CO,acetyl    2.909-10
 C2H4            2.1202-6
 C2H4O,ethylen-o 1.053-14
 CH3CHO,ethanal  2.212-11
 CH3COOH         1.800-16
 C2H5            8.856-10
 C2H6            2.000-10
 C2H5OH          3.204-16
 CCN             4.943-10
 CNC             8.2206-8
 OCCN            5.4394-8
 C2N2            1.1780-4
 C2O             3.0848-7
 *C3             7.9511-7
 C3H3,1-propynl  3.2827-9
 C3H3,2-propynl  3.1838-6
 C3H4,allene     7.5346-8
 C3H4,propyne    1.6589-7
 C3H4,cyclo-     1.2312-9
 C3H5,allyl      5.968-10
 C3H6,propylene  1.128-10
 C3H6,cyclo-     7.213-13
 C3H6O,acetone   3.234-16
 C3H6O,propanal  3.884-16
 C3H7,n-propyl   1.667-14
 C3H7,i-propyl   1.111-14
 C3H8            3.662-15
 CNCOCN          1.058-11
 C3O2            3.0273-9
 *C4             1.0235-9
 C4H2,butadiyne  3.3575-5
 C4H4,1,3-cyclo- 1.314-11
 C4H6,butadiene  2.033-11
 C4H6,1butyne    3.310-12
 C4H6,2butyne    1.774-12
 C4H6,cyclo-     7.119-14
 C4H8,1-butene   1.894-15
 C4H8,cis2-buten 6.241-16
 C4H8,tr2-butene 7.066-16
 C4H8,isobutene  7.067-16
 C4N2            9.3803-7
 *C5             5.2318-9
 C5H6,1,3cyclo-  5.516-13
 C6H2            3.4390-7
 C6H5,phenyl     6.021-13
 C6H6            1.057-12
 C7H7,benzyl     8.266-16
 *H              6.5868-3
 HCN             3.3322-2
 HCO             2.1359-6
 HCCN            2.3210-9
 HCCO            7.0420-8
 HNC             4.4069-3
 HNCO            4.4128-7
 HNO             6.106-12
 HO2             1.066-16
 *H2             1.4690-1
 HCHO,formaldehy 1.8055-7
 HCOOH           7.685-12
 H2O             6.8550-6
 *N              3.4573-7
 NCO             1.3932-8
 *NH             3.7106-7
 NH2             7.0819-7
 NH3             3.7532-6
 NH2OH           4.336-15
 *NO             1.1372-8
 *N2             5.0485-1
 NCN             5.7688-9
 N2H2            7.047-11
 N2H4            1.444-14
 N2O             1.676-12
 N3              2.293-12
 N3H             2.718-12
 *O              2.2334-9
 *OH             8.5874-8
 *O2             4.207-14
 C(gr)           2.1609-2

  * THERMODYNAMIC PROPERTIES FITTED TO 20000.K









         THERMODYNAMIC EQUILIBRIUM COMBUSTION PROPERTIES AT ASSIGNED

                                     VOLUME

 CASE =                

             REACTANT                       MOLES         ENERGY      TEMP
                                                         KJ/KG-MOL      K
 FUEL        C2H2,acetylene               1.0000000    225787.177    300.000
 OXIDANT     O2                           2.5000000     -2439.995    300.000
 OXIDANT     N2                           9.4048000     -2440.472    300.000

 O/F=    4.12218  %FUEL= 19.522924  R,EQ.RATIO= 3.200000  PHI,EQ.RATIO= 3.200000

 THERMODYNAMIC PROPERTIES

 P, BAR            10.595
 T, K             2702.53
 RHO, KG/CU M    1.1391 0
 H, KJ/KG         2555.03
 U, KJ/KG         1624.89
 G, KJ/KG        -25228.0
 S, KJ/(KG)(K)    10.2804

 M, (1/n)          24.158
 MW, MOL WT        23.411
 (dLV/dLP)t      -1.00181
 (dLV/dLT)p        1.0350
 Cp, KJ/(KG)(K)    2.4173
 GAMMAs            1.1774
 SON VEL,M/SEC     1046.5

 MOLE FRACTIONS

 *C              1.9948-7
 *CH             1.9713-7
 CH2             1.8974-6
 CH3             2.1264-5
 CH2OH           3.348-11
 CH3O            6.416-12
 CH4             2.8244-5
 CH3OH           8.823-12
 *CN             1.1185-4
 CNN             3.645-11
 *CO             2.7426-1
 *CO2            1.8761-6
 COOH            1.717-11
 *C2             7.8423-8
 C2H             1.7328-5
 C2H2,acetylene  3.5709-3
 C2H2,vinylidene 5.2368-6
 CH2CO,ketene    6.6476-7
 O(CH)2O         4.681-14
 C2H3,vinyl      8.7952-7
 CH3CN           2.3546-6
 CH3CO,acetyl    3.009-10
 C2H4            2.2219-6
 C2H4O,ethylen-o 1.100-14
 CH3CHO,ethanal  2.292-11
 CH3COOH         1.840-16
 C2H5            9.453-10
 C2H6            2.134-10
 C2H5OH          3.397-16
 CCN             5.165-10
 CNC             8.5172-8
 OCCN            5.4690-8
 C2N2            1.1853-4
 C2O             3.1285-7
 *C3             8.3366-7
 C3H3,1-propynl  3.4900-9
 C3H3,2-propynl  3.3584-6
 C3H4,allene     7.9767-8
 C3H4,propyne    1.7553-7
 C3H4,cyclo-     1.3115-9
 C3H5,allyl      6.396-10
 C3H6,propylene  1.213-10
 C3H6,cyclo-     7.774-13
 C3H6O,acetone   3.432-16
 C3H6O,propanal  4.133-16
 C3H7,n-propyl   1.827-14
 C3H7,i-propyl   1.216-14
 C3H8            4.011-15
 CNCOCN          1.065-11
 C3O2            3.0001-9
 *C4             1.0897-9
 C4H2,butadiyne  3.5241-5
 C4H4,1,3-cyclo- 1.411-11
 C4H6,butadiene  2.204-11
 C4H6,1butyne    3.595-12
 C4H6,2butyne    1.923-12
 C4H6,cyclo-     7.729-14
 C4H8,1-butene   2.090-15
 C4H8,cis2-buten 6.880-16
 C4H8,tr2-butene 7.790-16
 C4H8,isobutene  7.787-16
 C4N2            9.5878-7
 *C5             5.5762-9
 C5H6,1,3cyclo-  5.979-13
 C6H2            3.6677-7
 C6H5,phenyl     6.530-13
 C6H6            1.141-12
 C7H7,benzyl     9.138-16
 *H              6.7165-3
 HCN             3.3637-2
 HCO             2.1562-6
 HCCN            2.4260-9
 HCCO            7.1797-8
 HNC             4.4685-3
 HNCO            4.3938-7
 HNO             6.183-12
 HO2             1.080-16
 *H2             1.4938-1
 HCHO,formaldehy 1.8279-7
 HCOOH           7.674-12
 H2O             6.8758-6
 *N              3.5316-7
 NCO             1.3937-8
 *NH             3.8086-7
 NH2             7.2788-7
 NH3             3.8442-6
 NH2OH           4.465-15
 *NO             1.1344-8
 *N2             4.9666-1
 NCN             5.8864-9
 N2H2            7.243-11
 N2H4            1.512-14
 N2O             1.668-12
 N3              2.324-12
 N3H             2.763-12
 *O              2.2608-9
 *OH             8.6730-8
 *O2             4.200-14
 C(gr)           3.0939-2

  * THERMODYNAMIC PROPERTIES FITTED TO 20000.K









         THERMODYNAMIC EQUILIBRIUM COMBUSTION PROPERTIES AT ASSIGNED

                                     VOLUME

 CASE =                

             REACTANT                       MOLES         ENERGY      TEMP
                                                         KJ/KG-MOL      K
 FUEL        C2H2,acetylene               1.0000000    225787.177    300.000
 OXIDANT     O2                           2.5000000     -2439.995    300.000
 OXIDANT     N2                           9.4048000     -2440.472    300.000

 O/F=    3.99727  %FUEL= 20.010931  R,EQ.RATIO= 3.300000  PHI,EQ.RATIO= 3.300000

 THERMODYNAMIC PROPERTIES

 P, BAR            10.609
 T, K             2706.79
 RHO, KG/CU M    1.1391 0
 H, KJ/KG         2598.93
 U, KJ/KG         1667.63
 G, KJ/KG        -25258.3
 S, KJ/(KG)(K)    10.2916

 M, (1/n)          24.166
 MW, MOL WT        23.199
 (dLV/dLP)t      -1.00186
 (dLV/dLT)p        1.0359
 Cp, KJ/(KG)(K)    2.4461
 GAMMAs            1.1752
 SON VEL,M/SEC     1046.2

 MOLE FRACTIONS

 *C              2.0749-7
 *CH             2.0600-7
 CH2             1.9795-6
 CH3             2.2098-5
 CH2OH           3.454-11
 CH3O            6.641-12
 CH4             2.9306-5
 CH3OH           9.105-12
 *CN             1.1374-4
 CNN             3.751-11
 *CO             2.7013-1
 *CO2            1.8205-6
 COOH            1.710-11
 *C2             8.2160-8
 C2H             1.8065-5
 C2H2,acetylene  3.6842-3
 C2H2,vinylidene 5.4694-6
 CH2CO,ketene    6.7534-7
 O(CH)2O         4.724-14
 C2H3,vinyl      9.2351-7
 CH3CN           2.4272-6
 CH3CO,acetyl    3.107-10
 C2H4            2.3241-6
 C2H4O,ethylen-o 1.148-14
 CH3CHO,ethanal  2.372-11
 CH3COOH         1.879-16
 C2H5            1.0066-9
 C2H6            2.270-10
 C2H5OH          3.592-16
 CCN             5.389-10
 CNC             8.8127-8
 OCCN            5.4958-8
 C2N2            1.1921-4
 C2O             3.1705-7
 *C3             8.7265-7
 C3H3,1-propynl  3.7020-9
 C3H3,2-propynl  3.5354-6
 C3H4,allene     8.4263-8
 C3H4,propyne    1.8532-7
 C3H4,cyclo-     1.3938-9
 C3H5,allyl      6.837-10
 C3H6,propylene  1.300-10
 C3H6,cyclo-     8.354-13
 C3H6O,acetone   3.633-16
 C3H6O,propanal  4.387-16
 C3H7,n-propyl   1.996-14
 C3H7,i-propyl   1.327-14
 C3H8            4.376-15
 CNCOCN          1.070-11
 C3O2            2.9727-9
 *C4             1.1576-9
 C4H2,butadiyne  3.6923-5
 C4H4,1,3-cyclo- 1.511-11
 C4H6,butadiene  2.383-11
 C4H6,1butyne    3.892-12
 C4H6,2butyne    2.079-12
 C4H6,cyclo-     8.366-14
 C4H8,1-butene   2.297-15
 C4H8,cis2-buten 7.555-16
 C4H8,tr2-butene 8.555-16
 C4H8,isobutene  8.548-16
 C4N2            9.7902-7
 *C5             5.9304-9
 C5H6,1,3cyclo-  6.462-13
 C6H2            3.9027-7
 C6H5,phenyl     7.060-13
 C6H6            1.229-12
 C7H7,benzyl     1.007-15
 *H              6.8433-3
 HCN             3.3937-2
 HCO             2.1753-6
 HCCN            2.5316-9
 HCCO            7.3132-8
 HNC             4.5277-3
 HNCO            4.3737-7
 HNO             6.256-12
 HO2             1.092-16
 *H2             1.5178-1
 HCHO,formaldehy 1.8491-7
 HCOOH           7.659-12
 H2O             6.8932-6
 *N              3.6043-7
 NCO             1.3937-8
 *NH             3.9049-7
 NH2             7.4721-7
 NH3             3.9328-6
 NH2OH           4.591-15
 *NO             1.1312-8
 *N2             4.8872-1
 NCN             6.0007-9
 N2H2            7.435-11
 N2H4            1.580-14
 N2O             1.659-12
 N3              2.353-12
 N3H             2.807-12
 *O              2.2871-9
 *OH             8.7539-8
 *O2             4.191-14
 C(gr)           3.9989-2

  * THERMODYNAMIC PROPERTIES FITTED TO 20000.K









         THERMODYNAMIC EQUILIBRIUM COMBUSTION PROPERTIES AT ASSIGNED

                                     VOLUME

 CASE =                

             REACTANT                       MOLES         ENERGY      TEMP
                                                         KJ/KG-MOL      K
 FUEL        C2H2,acetylene               1.0000000    225787.177    300.000
 OXIDANT     O2                           2.5000000     -2439.995    300.000
 OXIDANT     N2                           9.4048000     -2440.472    300.000

 O/F=    3.87970  %FUEL= 20.493054  R,EQ.RATIO= 3.400000  PHI,EQ.RATIO= 3.400000

 THERMODYNAMIC PROPERTIES

 P, BAR            10.621
 T, K             2710.93
 RHO, KG/CU M    1.1391 0
 H, KJ/KG         2642.28
 U, KJ/KG         1709.84
 G, KJ/KG        -25287.5
 S, KJ/(KG)(K)    10.3027

 M, (1/n)          24.173
 MW, MOL WT        22.994
 (dLV/dLP)t      -1.00192
 (dLV/dLT)p        1.0369
 Cp, KJ/(KG)(K)    2.4745
 GAMMAs            1.1731
 SON VEL,M/SEC     1045.9

 MOLE FRACTIONS

 *C              2.1553-7
 *CH             2.1493-7
 CH2             2.0620-6
 CH3             2.2930-5
 CH2OH           3.558-11
 CH3O            6.862-12
 CH4             3.0363-5
 CH3OH           9.382-12
 *CN             1.1557-4
 CNN             3.855-11
 *CO             2.6613-1
 *CO2            1.7674-6
 COOH            1.702-11
 *C2             8.5940-8
 C2H             1.8807-5
 C2H2,acetylene  3.7966-3
 C2H2,vinylidene 5.7035-6
 CH2CO,ketene    6.8550-7
 O(CH)2O         4.764-14
 C2H3,vinyl      9.6797-7
 CH3CN           2.4988-6
 CH3CO,acetyl    3.204-10
 C2H4            2.4267-6
 C2H4O,ethylen-o 1.195-14
 CH3CHO,ethanal  2.450-11
 CH3COOH         1.916-16
 C2H5            1.0693-9
 C2H6            2.410-10
 C2H5OH          3.790-16
 CCN             5.613-10
 CNC             9.1070-8
 OCCN            5.5201-8
 C2N2            1.1984-4
 C2O             3.2110-7
 *C3             9.1205-7
 C3H3,1-propynl  3.9186-9
 C3H3,2-propynl  3.7148-6
 C3H4,allene     8.8830-8
 C3H4,propyne    1.9527-7
 C3H4,cyclo-     1.4779-9
 C3H5,allyl      7.290-10
 C3H6,propylene  1.389-10
 C3H6,cyclo-     8.954-13
 C3H6O,acetone   3.836-16
 C3H6O,propanal  4.645-16
 C3H7,n-propyl   2.173-14
 C3H7,i-propyl   1.443-14
 C3H8            4.760-15
 CNCOCN          1.076-11
 C3O2            2.9452-9
 *C4             1.2274-9
 C4H2,butadiyne  3.8621-5
 C4H4,1,3-cyclo- 1.613-11
 C4H6,butadiene  2.569-11
 C4H6,1butyne    4.202-12
 C4H6,2butyne    2.241-12
 C4H6,cyclo-     9.029-14
 C4H8,1-butene   2.516-15
 C4H8,cis2-buten 8.268-16
 C4H8,tr2-butene 9.363-16
 C4H8,isobutene  9.352-16
 C4N2            9.9876-7
 *C5             6.2943-9
 C5H6,1,3cyclo-  6.964-13
 C6H2            4.1438-7
 C6H5,phenyl     7.613-13
 C6H6            1.319-12
 C7H7,benzyl     1.105-15
 C7H8            1.057-16
 *H              6.9674-3
 HCN             3.4221-2
 HCO             2.1933-6
 HCCN            2.6375-9
 HCCO            7.4425-8
 HNC             4.5848-3
 HNCO            4.3525-7
 HNO             6.325-12
 HO2             1.104-16
 *H2             1.5411-1
 HCHO,formaldehy 1.8691-7
 HCOOH           7.640-12
 H2O             6.9077-6
 *N              3.6755-7
 NCO             1.3932-8
 *NH             3.9996-7
 NH2             7.6620-7
 NH3             4.0192-6
 NH2OH           4.714-15
 *NO             1.1279-8
 *N2             4.8103-1
 NCN             6.1119-9
 N2H2            7.623-11
 N2H4            1.647-14
 N2O             1.650-12
 N3              2.381-12
 N3H             2.849-12
 *O              2.3123-9
 *OH             8.8302-8
 *O2             4.180-14
 C(gr)           4.8774-2

  * THERMODYNAMIC PROPERTIES FITTED TO 20000.K









         THERMODYNAMIC EQUILIBRIUM COMBUSTION PROPERTIES AT ASSIGNED

                                     VOLUME

 CASE =                

             REACTANT                       MOLES         ENERGY      TEMP
                                                         KJ/KG-MOL      K
 FUEL        C2H2,acetylene               1.0000000    225787.177    300.000
 OXIDANT     O2                           2.5000000     -2439.995    300.000
 OXIDANT     N2                           9.4048000     -2440.472    300.000

 O/F=    3.76885  %FUEL= 20.969401  R,EQ.RATIO= 3.500000  PHI,EQ.RATIO= 3.500000

 THERMODYNAMIC PROPERTIES

 P, BAR            10.634
 T, K             2714.95
 RHO, KG/CU M    1.1391 0
 H, KJ/KG         2685.08
 U, KJ/KG         1751.55
 G, KJ/KG        -25315.7
 S, KJ/(KG)(K)    10.3135

 M, (1/n)          24.181
 MW, MOL WT        22.795
 (dLV/dLP)t      -1.00197
 (dLV/dLT)p        1.0378
 Cp, KJ/(KG)(K)    2.5025
 GAMMAs            1.1710
 SON VEL,M/SEC     1045.5

 MOLE FRACTIONS

 *C              2.2360-7
 *CH             2.2392-7
 CH2             2.1448-6
 CH3             2.3761-5
 CH2OH           3.660-11
 CH3O            7.081-12
 CH4             3.1414-5
 CH3OH           9.655-12
 *CN             1.1735-4
 CNN             3.958-11
 *CO             2.6225-1
 *CO2            1.7168-6
 COOH            1.693-11
 *C2             8.9762-8
 C2H             1.9552-5
 C2H2,acetylene  3.9081-3
 C2H2,vinylidene 5.9386-6
 CH2CO,ketene    6.9525-7
 O(CH)2O         4.801-14
 C2H3,vinyl      1.0128-6
 CH3CN           2.5694-6
 CH3CO,acetyl    3.300-10
 C2H4            2.5299-6
 C2H4O,ethylen-o 1.243-14
 CH3CHO,ethanal  2.527-11
 CH3COOH         1.951-16
 C2H5            1.1334-9
 C2H6            2.552-10
 C2H5OH          3.990-16
 CCN             5.839-10
 CNC             9.3999-8
 OCCN            5.5419-8
 C2N2            1.2042-4
 C2O             3.2499-7
 *C3             9.5185-7
 C3H3,1-propynl  4.1395-9
 C3H3,2-propynl  3.8964-6
 C3H4,allene     9.3465-8
 C3H4,propyne    2.0536-7
 C3H4,cyclo-     1.5637-9
 C3H5,allyl      7.755-10
 C3H6,propylene  1.481-10
 C3H6,cyclo-     9.572-13
 C3H6O,acetone   4.042-16
 C3H6O,propanal  4.907-16
 C3H7,n-propyl   2.358-14
 C3H7,i-propyl   1.565-14
 C3H8            5.161-15
 CNCOCN          1.080-11
 C3O2            2.9178-9
 *C4             1.2989-9
 C4H2,butadiyne  4.0334-5
 C4H4,1,3-cyclo- 1.719-11
 C4H6,butadiene  2.762-11
 C4H6,1butyne    4.524-12
 C4H6,2butyne    2.410-12
 C4H6,cyclo-     9.718-14
 C4H8,1-butene   2.746-15
 C4H8,cis2-buten 9.019-16
 C4H8,tr2-butene 1.021-15
 C4H8,isobutene  1.020-15
 C4N2            1.0180-6
 *C5             6.6676-9
 C5H6,1,3cyclo-  7.484-13
 C6H2            4.3908-7
 C6H5,phenyl     8.186-13
 C6H6            1.412-12
 C7H7,benzyl     1.209-15
 C7H8            1.157-16
 *H              7.0887-3
 HCN             3.4491-2
 HCO             2.2102-6
 HCCN            2.7438-9
 HCCO            7.5678-8
 HNC             4.6396-3
 HNCO            4.3305-7
 HNO             6.390-12
 HO2             1.116-16
 *H2             1.5638-1
 HCHO,formaldehy 1.8882-7
 HCOOH           7.619-12
 H2O             6.9194-6
 *N              3.7452-7
 NCO             1.3923-8
 *NH             4.0926-7
 NH2             7.8484-7
 NH3             4.1034-6
 NH2OH           4.834-15
 *NO             1.1242-8
 *N2             4.7355-1
 NCN             6.2200-9
 N2H2            7.807-11
 N2H4            1.715-14
 N2O             1.640-12
 N3              2.407-12
 N3H             2.889-12
 *O              2.3364-9
 *OH             8.9022-8
 *O2             4.169-14
 C(gr)           5.7303-2

  * THERMODYNAMIC PROPERTIES FITTED TO 20000.K









         THERMODYNAMIC EQUILIBRIUM COMBUSTION PROPERTIES AT ASSIGNED

                                     VOLUME

 CASE =                

             REACTANT                       MOLES         ENERGY      TEMP
                                                         KJ/KG-MOL      K
 FUEL        C2H2,acetylene               1.0000000    225787.177    300.000
 OXIDANT     O2                           2.5000000     -2439.995    300.000
 OXIDANT     N2                           9.4048000     -2440.472    300.000

 O/F=    3.66416  %FUEL= 21.440074  R,EQ.RATIO= 3.600000  PHI,EQ.RATIO= 3.600000

 THERMODYNAMIC PROPERTIES

 P, BAR            10.646
 T, K             2718.87
 RHO, KG/CU M    1.1391 0
 H, KJ/KG         2727.35
 U, KJ/KG         1792.76
 G, KJ/KG        -25342.8
 S, KJ/(KG)(K)    10.3242

 M, (1/n)          24.188
 MW, MOL WT        22.602
 (dLV/dLP)t      -1.00202
 (dLV/dLT)p        1.0387
 Cp, KJ/(KG)(K)    2.5301
 GAMMAs            1.1690
 SON VEL,M/SEC     1045.2

 MOLE FRACTIONS

 *C              2.3169-7
 *CH             2.3297-7
 CH2             2.2278-6
 CH3             2.4591-5
 CH2OH           3.761-11
 CH3O            7.298-12
 CH4             3.2460-5
 CH3OH           9.923-12
 *CN             1.1909-4
 CNN             4.059-11
 *CO             2.5847-1
 *CO2            1.6685-6
 COOH            1.684-11
 *C2             9.3621-8
 C2H             2.0299-5
 C2H2,acetylene  4.0185-3
 C2H2,vinylidene 6.1748-6
 CH2CO,ketene    7.0462-7
 O(CH)2O         4.835-14
 C2H3,vinyl      1.0581-6
 CH3CN           2.6390-6
 CH3CO,acetyl    3.394-10
 C2H4            2.6333-6
 C2H4O,ethylen-o 1.290-14
 CH3CHO,ethanal  2.604-11
 CH3COOH         1.985-16
 C2H5            1.1988-9
 C2H6            2.697-10
 C2H5OH          4.192-16
 CCN             6.065-10
 CNC             9.6913-8
 OCCN            5.5614-8
 C2N2            1.2096-4
 C2O             3.2874-7
 *C3             9.9201-7
 C3H3,1-propynl  4.3647-9
 C3H3,2-propynl  4.0800-6
 C3H4,allene     9.8165-8
 C3H4,propyne    2.1558-7
 C3H4,cyclo-     1.6513-9
 C3H5,allyl      8.231-10
 C3H6,propylene  1.576-10
 C3H6,cyclo-     1.021-12
 C3H6O,acetone   4.250-16
 C3H6O,propanal  5.172-16
 C3H7,n-propyl   2.552-14
 C3H7,i-propyl   1.692-14
 C3H8            5.580-15
 CNCOCN          1.085-11
 C3O2            2.8903-9
 *C4             1.3721-9
 C4H2,butadiyne  4.2059-5
 C4H4,1,3-cyclo- 1.828-11
 C4H6,butadiene  2.962-11
 C4H6,1butyne    4.858-12
 C4H6,2butyne    2.584-12
 C4H6,cyclo-     1.043-13
 C4H8,1-butene   2.988-15
 C4H8,cis2-buten 9.807-16
 C4H8,tr2-butene 1.111-15
 C4H8,isobutene  1.109-15
 C4N2            1.0367-6
 *C5             7.0501-9
 C5H6,1,3cyclo-  8.023-13
 C6H2            4.6435-7
 C6H5,phenyl     8.781-13
 C6H6            1.509-12
 C7H7,benzyl     1.318-15
 C7H8            1.263-16
 *H              7.2075-3
 HCN             3.4747-2
 HCO             2.2261-6
 HCCN            2.8504-9
 HCCO            7.6893-8
 HNC             4.6924-3
 HNCO            4.3077-7
 HNO             6.452-12
 HO2             1.126-16
 *H2             1.5857-1
 HCHO,formaldehy 1.9062-7
 HCOOH           7.595-12
 H2O             6.9285-6
 *N              3.8134-7
 NCO             1.3910-8
 *NH             4.1840-7
 NH2             8.0315-7
 NH3             4.1854-6
 NH2OH           4.952-15
 *NO             1.1203-8
 *N2             4.6630-1
 NCN             6.3250-9
 N2H2            7.987-11
 N2H4            1.783-14
 N2O             1.630-12
 N3              2.432-12
 N3H             2.927-12
 *O              2.3595-9
 *OH             8.9702-8
 *O2             4.156-14
 C(gr)           6.5588-2

  * THERMODYNAMIC PROPERTIES FITTED TO 20000.K



