
 *******************************************************************************

         NASA-GLENN CHEMICAL EQUILIBRIUM PROGRAM CEA2, MAY 21, 2004
                   BY  BONNIE MCBRIDE AND SANFORD GORDON
      REFS: NASA RP-1311, PART I, 1994 AND NASA RP-1311, PART II, 1996

 *******************************************************************************



 problem    phi,eq.ratio=0.5,0.6,0.7,0.8,0.9,1,1.1,1.2,1.3,1.4,1.5,1.6,1.7,1.8,1.
 9,2,
       uv   rho,kg/m**3=1.1391,  t,k=3800
 react
   fuel=C2H2,acetylene moles=1 t,k=300
   oxid=O2 moles=2.5 t,k=300
   oxid=N2 moles=9.4048 t,k=300
 output
      trace=1e-16 siunits short
 end




         THERMODYNAMIC EQUILIBRIUM COMBUSTION PROPERTIES AT ASSIGNED

                                     VOLUME

 CASE =                

             REACTANT                       MOLES         ENERGY      TEMP
                                                         KJ/KG-MOL      K
 FUEL        C2H2,acetylene               1.0000000    225787.177    300.000
 OXIDANT     O2                           2.5000000     -2439.995    300.000
 OXIDANT     N2                           9.4048000     -2440.472    300.000

 O/F=   26.38197  %FUEL=  3.652038  R,EQ.RATIO= 0.500000  PHI,EQ.RATIO= 0.500000

 THERMODYNAMIC PROPERTIES

 P, BAR            6.9566
 T, K             2152.63
 RHO, KG/CU M    1.1391 0
 H, KJ/KG          845.91
 U, KJ/KG          235.20
 G, KJ/KG        -17707.0
 S, KJ/(KG)(K)     8.6187

 M, (1/n)          29.307
 (dLV/dLP)t      -1.00028
 (dLV/dLT)p        1.0087
 Cp, KJ/(KG)(K)    1.4681
 GAMMAs            1.2443
 SON VEL,M/SEC      871.7

 MOLE FRACTIONS

 *CN             2.629-16
 *CO             4.2538-4
 *CO2            8.1787-2
 COOH            1.3044-9
 *H              1.0411-5
 HCN             3.246-14
 HCO             7.856-12
 HNC             2.135-15
 HNCO            9.131-12
 HNO             4.7091-8
 HNO2            3.1482-7
 HNO3            1.328-10
 HO2             3.0441-6
 *H2             4.0960-5
 HCHO,formaldehy 4.967-14
 HCOOH           4.596-11
 H2O             4.0315-2
 H2O2            1.0015-7
 *N              2.3227-9
 NCO             1.204-12
 *NH             1.350-10
 NH2             2.423-11
 NH3             2.558-11
 NH2OH           3.258-14
 *NO             7.6619-3
 NO2             1.9019-5
 NO3             6.008-11
 *N2             7.6935-1
 N2H2            1.617-15
 N2O             1.1166-6
 N2O3            1.811-12
 N2O4            1.756-16
 N3              2.269-14
 N3H             1.834-15
 *O              2.3665-4
 *OH             1.4875-3
 *O2             9.8658-2
 O3              9.1276-9

  * THERMODYNAMIC PROPERTIES FITTED TO 20000.K









         THERMODYNAMIC EQUILIBRIUM COMBUSTION PROPERTIES AT ASSIGNED

                                     VOLUME

 CASE =                

             REACTANT                       MOLES         ENERGY      TEMP
                                                         KJ/KG-MOL      K
 FUEL        C2H2,acetylene               1.0000000    225787.177    300.000
 OXIDANT     O2                           2.5000000     -2439.995    300.000
 OXIDANT     N2                           9.4048000     -2440.472    300.000

 O/F=   21.98498  %FUEL=  4.350668  R,EQ.RATIO= 0.600000  PHI,EQ.RATIO= 0.600000

 THERMODYNAMIC PROPERTIES

 P, BAR            7.7550
 T, K             2402.15
 RHO, KG/CU M    1.1391 0
 H, KJ/KG          977.17
 U, KJ/KG          296.37
 G, KJ/KG        -20064.5
 S, KJ/(KG)(K)     8.7595

 M, (1/n)          29.337
 (dLV/dLP)t      -1.00120
 (dLV/dLT)p        1.0333
 Cp, KJ/(KG)(K)    1.6890
 GAMMAs            1.2165
 SON VEL,M/SEC      910.0

 MOLE FRACTIONS

 *CN             4.599-14
 *CO             2.6619-3
 *CO2            9.5379-2
 COOH            1.0499-8
 *H              8.6008-5
 HCN             2.406-12
 HCO             2.910-10
 HNC             2.268-13
 HNCO            1.452-10
 HNO             1.8471-7
 HNO2            4.0796-7
 HNO3            1.201-10
 HO2             6.0438-6
 *H2             2.2136-4
 HCHO,formaldehy 1.861-12
 HCOOH           3.632-10
 H2O             4.6896-2
 H2O2            2.0574-7
 *N              3.5661-8
 NCO             3.430-11
 *NH             2.4852-9
 NH2             4.018-10
 NH3             2.598-10
 NH2OH           3.222-13
 *NO             1.1386-2
 NO2             1.9047-5
 NO3             7.288-11
 *N2             7.6268-1
 N2H2            3.408-14
 N2O             1.7367-6
 N2O3            2.599-12
 N2O4            1.600-16
 N3              3.116-13
 N3H             2.675-14
 *O              8.6849-4
 *OH             3.7130-3
 *O2             7.6083-2
 O3              1.5765-8

  * THERMODYNAMIC PROPERTIES FITTED TO 20000.K









         THERMODYNAMIC EQUILIBRIUM COMBUSTION PROPERTIES AT ASSIGNED

                                     VOLUME

 CASE =                

             REACTANT                       MOLES         ENERGY      TEMP
                                                         KJ/KG-MOL      K
 FUEL        C2H2,acetylene               1.0000000    225787.177    300.000
 OXIDANT     O2                           2.5000000     -2439.995    300.000
 OXIDANT     N2                           9.4048000     -2440.472    300.000

 O/F=   18.84427  %FUEL=  5.039239  R,EQ.RATIO= 0.700000  PHI,EQ.RATIO= 0.700000

 THERMODYNAMIC PROPERTIES

 P, BAR            8.4011
 T, K             2597.62
 RHO, KG/CU M    1.1391 0
 H, KJ/KG         1094.19
 U, KJ/KG          356.66
 G, KJ/KG        -21982.0
 S, KJ/(KG)(K)     8.8836

 M, (1/n)          29.284
 (dLV/dLP)t      -1.00331
 (dLV/dLT)p        1.0846
 Cp, KJ/(KG)(K)    2.0626
 GAMMAs            1.1885
 SON VEL,M/SEC      936.2

 MOLE FRACTIONS

 *C              1.457-15
 *CH             1.091-16
 CH2OH           2.122-16
 *CN             1.471-12
 *CO             9.1641-3
 *CO2            1.0419-1
 COOH            4.1980-8
 C2O             1.019-16
 *H              3.5130-4
 HCN             4.614-11
 HCO             3.3234-9
 HNC             5.488-12
 HNCO            9.628-10
 HNO             4.4089-7
 HNO2            4.4412-7
 HNO3            9.757-11
 HO2             8.6369-6
 *H2             7.1502-4
 HCHO,formaldehy 2.243-11
 HCOOH           1.5056-9
 H2O             5.2515-2
 H2O2            3.1406-7
 *N              2.0895-7
 NCO             3.183-10
 *NH             1.7081-8
 NH2             2.6977-9
 NH3             1.3267-9
 NH2OH           1.532-12
 *NO             1.3740-2
 NO2             1.6765-5
 NO3             6.851-11
 *N2             7.5460-1
 N2H2            2.711-13
 NH2NO2          1.044-16
 N2O             2.1759-6
 N2O3            2.736-12
 N2O4            1.185-16
 N3              1.710-12
 N3H             1.597-13
 *O              1.8836-3
 *OH             6.5328-3
 *O2             5.6283-2
 O3              1.8817-8

  * THERMODYNAMIC PROPERTIES FITTED TO 20000.K









         THERMODYNAMIC EQUILIBRIUM COMBUSTION PROPERTIES AT ASSIGNED

                                     VOLUME

 CASE =                

             REACTANT                       MOLES         ENERGY      TEMP
                                                         KJ/KG-MOL      K
 FUEL        C2H2,acetylene               1.0000000    225787.177    300.000
 OXIDANT     O2                           2.5000000     -2439.995    300.000
 OXIDANT     N2                           9.4048000     -2440.472    300.000

 O/F=   16.48873  %FUEL=  5.717967  R,EQ.RATIO= 0.800000  PHI,EQ.RATIO= 0.800000

 THERMODYNAMIC PROPERTIES

 P, BAR            8.9059
 T, K             2740.31
 RHO, KG/CU M    1.1391 0
 H, KJ/KG         1197.93
 U, KJ/KG          416.09
 G, KJ/KG        -23453.5
 S, KJ/(KG)(K)     8.9959

 M, (1/n)          29.142
 (dLV/dLP)t      -1.00626
 (dLV/dLT)p        1.1515
 Cp, KJ/(KG)(K)    2.5071
 GAMMAs            1.1691
 SON VEL,M/SEC      956.1

 MOLE FRACTIONS

 *C              2.867-14
 *CH             2.483-15
 CH2             1.984-15
 CH3             1.808-15
 CH2OH           2.280-15
 CH3O            4.497-16
 CH4             1.995-16
 *CN             1.493-11
 *CO             2.0893-2
 *CO2            1.0710-1
 COOH            1.0340-7
 OCCN            4.249-16
 C2O             2.311-15
 *H              8.9746-4
 HCN             3.528-10
 HCO             1.7056-8
 HNC             4.867-11
 HNCO            3.4992-9
 HNO             7.5197-7
 HNO2            4.2877-7
 HNO3            7.334-11
 HO2             9.9068-6
 *H2             1.6400-3
 HCHO,formaldehy 1.246-10
 HCOOH           3.9725-9
 H2O             5.7345-2
 H2O2            3.9254-7
 *N              6.4417-7
 NCO             1.3727-9
 *NH             6.0874-8
 NH2             9.8995-9
 NH3             4.2711-9
 NH2OH           4.431-12
 *NO             1.4434-2
 NO2             1.3515-5
 NO3             5.408-11
 *N2             7.4513-1
 NCN             9.094-16
 N2H2            1.115-12
 NH2NO2          1.879-16
 N2O             2.3496-6
 N2O3            2.326-12
 N3              5.071-12
 N3H             5.220-13
 *O              2.8801-3
 *OH             9.1159-3
 *O2             4.0531-2
 O3              1.7431-8

  * THERMODYNAMIC PROPERTIES FITTED TO 20000.K









         THERMODYNAMIC EQUILIBRIUM COMBUSTION PROPERTIES AT ASSIGNED

                                     VOLUME

 CASE =                

             REACTANT                       MOLES         ENERGY      TEMP
                                                         KJ/KG-MOL      K
 FUEL        C2H2,acetylene               1.0000000    225787.177    300.000
 OXIDANT     O2                           2.5000000     -2439.995    300.000
 OXIDANT     N2                           9.4048000     -2440.472    300.000

 O/F=   14.65665  %FUEL=  6.387061  R,EQ.RATIO= 0.900000  PHI,EQ.RATIO= 0.900000

 THERMODYNAMIC PROPERTIES

 P, BAR            9.3060
 T, K             2842.73
 RHO, KG/CU M    1.1391 0
 H, KJ/KG         1291.64
 U, KJ/KG          474.68
 G, KJ/KG        -24576.0
 S, KJ/(KG)(K)     9.0996

 M, (1/n)          28.931
 (dLV/dLP)t      -1.00906
 (dLV/dLT)p        1.2113
 Cp, KJ/(KG)(K)    2.8847
 GAMMAs            1.1589
 SON VEL,M/SEC      973.0

 MOLE FRACTIONS

 *C              2.217-13
 *CH             2.203-14
 CH2             1.752-14
 CH3             1.512-14
 CH2OH           1.259-14
 CH3O            2.675-15
 CH4             1.668-15
 CH3OH           2.925-16
 *CN             7.476-11
 *CO             3.6828-2
 *CO2            1.0511-1
 COOH            1.8762-7
 CH2CO,ketene    3.521-16
 HO(CO)2OH       1.162-16
 OCCN            3.326-15
 C2O             2.029-14
 *H              1.7215-3
 HCN             1.5299-9
 HCO             5.3365-8
 HCCO            4.745-16
 HNC             2.326-10
 HNCO            8.7375-9
 HNO             1.0395-6
 HNO2            3.8224-7
 HNO3            5.206-11
 HO2             9.8852-6
 *H2             3.0534-3
 HCHO,formaldehy 4.286-10
 HCOOH           7.8662-9
 H2O             6.1539-2
 H2O2            4.3188-7
 *N              1.3410-6
 NCO             3.6796-9
 *NH             1.4521-7
 NH2             2.5096-8
 NH3             1.0359-8
 NH2OH           9.410-12
 *NO             1.3901-2
 NO2             1.0267-5
 NO3             3.803-11
 *N2             7.3466-1
 NCN             5.209-15
 N2H2            3.055-12
 NH2NO2          2.633-16
 N2O             2.3069-6
 N2O3            1.717-12
 N3              1.029-11
 N3H             1.178-12
 *O              3.5496-3
 *OH             1.1022-2
 *O2             2.8585-2
 O3              1.3673-8

  * THERMODYNAMIC PROPERTIES FITTED TO 20000.K









         THERMODYNAMIC EQUILIBRIUM COMBUSTION PROPERTIES AT ASSIGNED

                                     VOLUME

 CASE =                

             REACTANT                       MOLES         ENERGY      TEMP
                                                         KJ/KG-MOL      K
 FUEL        C2H2,acetylene               1.0000000    225787.177    300.000
 OXIDANT     O2                           2.5000000     -2439.995    300.000
 OXIDANT     N2                           9.4048000     -2440.472    300.000

 O/F=   13.19099  %FUEL=  7.046726  R,EQ.RATIO= 1.000000  PHI,EQ.RATIO= 1.000000

 THERMODYNAMIC PROPERTIES

 P, BAR            9.6336
 T, K             2916.79
 RHO, KG/CU M    1.1391 0
 H, KJ/KG         1378.16
 U, KJ/KG          532.44
 G, KJ/KG        -25446.5
 S, KJ/(KG)(K)     9.1966

 M, (1/n)          28.676
 (dLV/dLP)t      -1.01095
 (dLV/dLT)p        1.2489
 Cp, KJ/(KG)(K)    3.1141
 GAMMAs            1.1551
 SON VEL,M/SEC      988.4

 MOLE FRACTIONS

 *C              9.746-13
 *CH             1.106-13
 CH2             9.123-14
 CH3             7.896-14
 CH2OH           4.640-14
 CH3O            1.038-14
 CH4             9.072-15
 CH3OH           1.156-15
 *CN             2.446-10
 CNN             1.787-16
 *CO             5.5505-2
 *CO2            9.9712-2
 COOH            2.8108-7
 CH2CO,ketene    2.043-15
 HO(CO)2OH       1.997-16
 OCCN            1.519-14
 C2O             1.002-13
 *H              2.7752-3
 HCN             4.7223-9
 HCO             1.2357-7
 HCCO            2.694-15
 HNC             7.667-10
 HNCO            1.7358-8
 HNO             1.2567-6
 HNO2            3.2101-7
 HNO3            3.508-11
 HO2             8.9642-6
 *H2             5.0167-3
 HCHO,formaldehy 1.1011-9
 HCOOH           1.3015-8
 H2O             6.5120-2
 H2O2            4.3538-7
 *N              2.1959-6
 NCO             7.3736-9
 *NH             2.7130-7
 NH2             5.0842-8
 NH3             2.1190-8
 NH2OH           1.648-11
 *NO             1.2623-2
 NO2             7.4340-6
 NO3             2.447-11
 *N2             7.2357-1
 NCN             1.866-14
 N2H2            6.528-12
 NH2NO2          3.129-16
 N2O             2.1229-6
 N2O3            1.142-12
 N3              1.656-11
 N3H             2.118-12
 *O              3.8136-3
 *OH             1.2157-2
 *O2             1.9681-2
 O3              9.5035-9

  * THERMODYNAMIC PROPERTIES FITTED TO 20000.K









         THERMODYNAMIC EQUILIBRIUM COMBUSTION PROPERTIES AT ASSIGNED

                                     VOLUME

 CASE =                

             REACTANT                       MOLES         ENERGY      TEMP
                                                         KJ/KG-MOL      K
 FUEL        C2H2,acetylene               1.0000000    225787.177    300.000
 OXIDANT     O2                           2.5000000     -2439.995    300.000
 OXIDANT     N2                           9.4048000     -2440.472    300.000

 O/F=   11.99181  %FUEL=  7.697159  R,EQ.RATIO= 1.100000  PHI,EQ.RATIO= 1.100000

 THERMODYNAMIC PROPERTIES

 P, BAR            9.9084
 T, K             2970.23
 RHO, KG/CU M    1.1391 0
 H, KJ/KG         1459.24
 U, KJ/KG          589.40
 G, KJ/KG        -26128.7
 S, KJ/(KG)(K)     9.2881

 M, (1/n)          28.391
 (dLV/dLP)t      -1.01170
 (dLV/dLT)p        1.2611
 Cp, KJ/(KG)(K)    3.1828
 GAMMAs            1.1556
 SON VEL,M/SEC     1002.6

 MOLE FRACTIONS

 *C              2.992-12
 *CH             3.876-13
 CH2             3.410-13
 CH3             3.078-13
 CH2OH           1.324-13
 CH3O            3.071-14
 CH4             3.789-14
 CH3OH           3.603-15
 *CN             6.121-10
 CNN             5.254-16
 *CO             7.5764-2
 *CO2            9.2097-2
 COOH            3.7047-7
 C2H2,acetylene  2.651-16
 CH2CO,ketene    8.503-15
 O(CH)2O         1.724-16
 HO(CO)2OH       2.900-16
 OCCN            4.944-14
 C2N2            3.596-16
 C2O             3.444-13
 C3O2            2.961-16
 *H              4.0002-3
 HCN             1.1815-8
 HCO             2.3618-7
 HCCO            1.061-14
 HNC             2.0074-9
 HNCO            2.9832-8
 HNO             1.3827-6
 HNO2            2.5569-7
 HNO3            2.235-11
 HO2             7.5328-6
 *H2             7.6243-3
 HCHO,formaldehy 2.3539-9
 HCOOH           1.9124-8
 H2O             6.8023-2
 H2O2            4.0967-7
 *N              3.0723-6
 NCO             1.2249-8
 *NH             4.3270-7
 NH2             8.9258-8
 NH3             3.8980-8
 NH2OH           2.538-11
 *NO             1.0945-2
 NO2             5.1352-6
 NO3             1.451-11
 *N2             7.1212-1
 NCN             4.970-14
 N2H2            1.189-11
 NH2NO2          3.296-16
 N2O             1.8573-6
 N2O3            6.924-13
 N3              2.286-11
 N3H             3.287-12
 *O              3.7165-3
 *OH             1.2555-2
 *O2             1.3137-2
 O3              5.9554-9

  * THERMODYNAMIC PROPERTIES FITTED TO 20000.K









         THERMODYNAMIC EQUILIBRIUM COMBUSTION PROPERTIES AT ASSIGNED

                                     VOLUME

 CASE =                

             REACTANT                       MOLES         ENERGY      TEMP
                                                         KJ/KG-MOL      K
 FUEL        C2H2,acetylene               1.0000000    225787.177    300.000
 OXIDANT     O2                           2.5000000     -2439.995    300.000
 OXIDANT     N2                           9.4048000     -2440.472    300.000

 O/F=   10.99249  %FUEL=  8.338552  R,EQ.RATIO= 1.200000  PHI,EQ.RATIO= 1.200000

 THERMODYNAMIC PROPERTIES

 P, BAR            10.141
 T, K             3007.61
 RHO, KG/CU M    1.1391 0
 H, KJ/KG         1535.87
 U, KJ/KG          645.56
 G, KJ/KG        -26660.1
 S, KJ/(KG)(K)     9.3749

 M, (1/n)          28.088
 (dLV/dLP)t      -1.01145
 (dLV/dLT)p        1.2518
 Cp, KJ/(KG)(K)    3.1191
 GAMMAs            1.1591
 SON VEL,M/SEC     1015.9

 MOLE FRACTIONS

 *C              7.193-12
 *CH             1.064-12
 CH2             1.022-12
 CH3             9.917-13
 CH2OH           3.181-13
 CH3O            7.560-14
 CH4             1.337-13
 CH3OH           9.601-15
 *CN             1.2799-9
 CNN             1.224-15
 *CO             9.6774-2
 *CO2            8.3130-2
 COOH            4.4461-7
 C2H             1.079-16
 C2H2,acetylene  1.262-15
 CH2CO,ketene    2.848-14
 O(CH)2O         4.333-16
 HO(CO)2OH       3.714-16
 OCCN            1.283-13
 C2N2            1.223-15
 C2O             9.284-13
 C3O2            9.181-16
 *H              5.3330-3
 HCN             2.5805-8
 HCO             3.9599-7
 HCCO            3.276-14
 HNC             4.5214-9
 HNCO            4.6511-8
 HNO             1.4126-6
 HNO2            1.9320-7
 HNO3            1.337-11
 HO2             5.9066-6
 *H2             1.1007-2
 HCHO,formaldehy 4.4488-9
 HCOOH           2.5814-8
 H2O             7.0127-2
 H2O2            3.6234-7
 *N              3.8394-6
 NCO             1.7864-8
 *NH             6.1736-7
 NH2             1.4200-7
 NH3             6.6871-8
 NH2OH           3.554-11
 *NO             9.1051-3
 NO2             3.3720-6
 NO3             7.913-12
 *N2             7.0043-1
 NCN             1.083-13
 N2H2            1.939-11
 NH2NO2          3.144-16
 N2H4            1.560-16
 N2O             1.5535-6
 N2O3            3.830-13
 N3              2.827-11
 N3H             4.598-12
 *O              3.3493-3
 *OH             1.2294-2
 *O2             8.4346-3
 O3              3.3758-9

  * THERMODYNAMIC PROPERTIES FITTED TO 20000.K









         THERMODYNAMIC EQUILIBRIUM COMBUSTION PROPERTIES AT ASSIGNED

                                     VOLUME

 CASE =                

             REACTANT                       MOLES         ENERGY      TEMP
                                                         KJ/KG-MOL      K
 FUEL        C2H2,acetylene               1.0000000    225787.177    300.000
 OXIDANT     O2                           2.5000000     -2439.995    300.000
 OXIDANT     N2                           9.4048000     -2440.472    300.000

 O/F=   10.14691  %FUEL=  8.971093  R,EQ.RATIO= 1.300000  PHI,EQ.RATIO= 1.300000

 THERMODYNAMIC PROPERTIES

 P, BAR            10.339
 T, K             3031.58
 RHO, KG/CU M    1.1391 0
 H, KJ/KG         1608.59
 U, KJ/KG          700.95
 G, KJ/KG        -27062.3
 S, KJ/(KG)(K)     9.4574

 M, (1/n)          27.771
 (dLV/dLP)t      -1.01050
 (dLV/dLT)p        1.2281
 Cp, KJ/(KG)(K)    2.9668
 GAMMAs            1.1651
 SON VEL,M/SEC     1028.3

 MOLE FRACTIONS

 *C              1.446-11
 *CH             2.451-12
 CH2             2.622-12
 CH3             2.804-12
 CH2OH           6.745-13
 CH3O            1.628-13
 CH4             4.220-13
 CH3OH           2.290-14
 *CN             2.3544-9
 CNN             2.409-15
 *CO             1.1791-1
 *CO2            7.3455-2
 COOH            4.9517-7
 C2H             4.020-16
 C2H2,acetylene  5.037-15
 CH2CO,ketene    8.221-14
 O(CH)2O         9.420-16
 HO(CO)2OH       4.301-16
 OCCN            2.838-13
 C2N2            3.551-15
 C2O             2.105-12
 C3O2            2.386-15
 *H              6.7020-3
 HCN             5.1412-8
 HCO             6.0326-7
 HCCO            8.526-14
 HNC             9.1838-9
 HNCO            6.7626-8
 HNO             1.3534-6
 HNO2            1.3812-7
 HNO3            7.445-12
 HO2             4.3263-6
 *H2             1.5323-2
 HCHO,formaldehy 7.7004-9
 HCOOH           3.2620-8
 H2O             7.1267-2
 H2O2            3.0166-7
 *N              4.3919-6
 NCO             2.3635-8
 *NH             8.0883-7
 NH2             2.0993-7
 NH3             1.0924-7
 NH2OH           4.610-11
 *NO             7.2743-3
 NO2             2.0945-6
 NO3             3.945-12
 *N2             6.8858-1
 NCN             2.043-13
 N2H2            2.908-11
 NH2NO2          2.739-16
 N2H4            3.190-16
 N2O             1.2442-6
 N2O3            1.925-13
 N3              3.207-11
 N3H             5.937-12
 *O              2.8168-3
 *OH             1.1478-2
 *O2             5.1704-3
 O3              1.7266-9

  * THERMODYNAMIC PROPERTIES FITTED TO 20000.K









         THERMODYNAMIC EQUILIBRIUM COMBUSTION PROPERTIES AT ASSIGNED

                                     VOLUME

 CASE =                

             REACTANT                       MOLES         ENERGY      TEMP
                                                         KJ/KG-MOL      K
 FUEL        C2H2,acetylene               1.0000000    225787.177    300.000
 OXIDANT     O2                           2.5000000     -2439.995    300.000
 OXIDANT     N2                           9.4048000     -2440.472    300.000

 O/F=    9.42213  %FUEL=  9.594964  R,EQ.RATIO= 1.400000  PHI,EQ.RATIO= 1.400000

 THERMODYNAMIC PROPERTIES

 P, BAR            10.504
 T, K             3043.89
 RHO, KG/CU M    1.1391 0
 H, KJ/KG         1677.71
 U, KJ/KG          755.57
 G, KJ/KG        -27348.6
 S, KJ/(KG)(K)     9.5359

 M, (1/n)          27.445
 (dLV/dLP)t      -1.00920
 (dLV/dLT)p        1.1975
 Cp, KJ/(KG)(K)    2.7718
 GAMMAs            1.1731
 SON VEL,M/SEC     1040.1

 MOLE FRACTIONS

 *C              2.530-11
 *CH             4.932-12
 CH2             5.977-12
 CH3             7.210-12
 CH2OH           1.299-12
 CH3O            3.159-13
 CH4             1.231-12
 CH3OH           5.022-14
 *CN             3.9331-9
 CNN             4.158-15
 *CO             1.3868-1
 *CO2            6.3597-2
 COOH            5.1735-7
 C2H             1.276-15
 C2H2,acetylene  1.776-14
 CH2CO,ketene    2.130-13
 O(CH)2O         1.832-15
 HO(CO)2OH       4.561-16
 OCCN            5.571-13
 C2N2            9.225-15
 C2O             4.191-12
 C3O2            5.449-15
 *H              8.0267-3
 HCN             9.5971-8
 HCO             8.5271-7
 HCCO            1.954-13
 HNC             1.7312-8
 HNCO            9.3226-8
 HNO             1.2222-6
 HNO2            9.3149-8
 HNO3            3.832-12
 HO2             2.9580-6
 *H2             2.0744-2
 HCHO,formaldehy 1.2462-8
 HCOOH           3.8994-8
 H2O             7.1255-2
 H2O2            2.3618-7
 *N              4.6669-6
 NCO             2.8943-8
 *NH             9.8798-7
 NH2             2.9257-7
 NH3             1.7185-7
 NH2OH           5.590-11
 *NO             5.5824-3
 NO2             1.2257-6
 NO3             1.789-12
 *N2             6.7663-1
 NCN             3.452-13
 N2H2            4.077-11
 NH2NO2          2.189-16
 N2H4            6.027-16
 N2O             9.5472-7
 N2O3            8.753-14
 N3              3.383-11
 N3H             7.180-12
 *O              2.2218-3
 *OH             1.0244-2
 *O2             3.0098-3
 O3              7.945-10

  * THERMODYNAMIC PROPERTIES FITTED TO 20000.K









         THERMODYNAMIC EQUILIBRIUM COMBUSTION PROPERTIES AT ASSIGNED

                                     VOLUME

 CASE =                

             REACTANT                       MOLES         ENERGY      TEMP
                                                         KJ/KG-MOL      K
 FUEL        C2H2,acetylene               1.0000000    225787.177    300.000
 OXIDANT     O2                           2.5000000     -2439.995    300.000
 OXIDANT     N2                           9.4048000     -2440.472    300.000

 O/F=    8.79399  %FUEL= 10.210342  R,EQ.RATIO= 1.500000  PHI,EQ.RATIO= 1.500000

 THERMODYNAMIC PROPERTIES

 P, BAR            10.639
 T, K             3045.93
 RHO, KG/CU M    1.1391 0
 H, KJ/KG         1743.48
 U, KJ/KG          809.46
 G, KJ/KG        -27530.4
 S, KJ/(KG)(K)     9.6108

 M, (1/n)          27.114
 (dLV/dLP)t      -1.00784
 (dLV/dLT)p        1.1663
 Cp, KJ/(KG)(K)    2.5721
 GAMMAs            1.1825
 SON VEL,M/SEC     1050.9

 MOLE FRACTIONS

 *C              3.959-11
 *CH             8.900-12
 CH2             1.241-11
 CH3             1.721-11
 CH2OH           2.306-12
 CH3O            5.618-13
 CH4             3.380-12
 CH3OH           1.027-13
 *CN             6.0933-9
 CNN             6.461-15
 *CO             1.5866-1
 *CO2            5.3996-2
 COOH            5.1059-7
 *C2             1.401-16
 C2H             3.578-15
 C2H2,acetylene  5.711-14
 C2H2,vinylidene 1.999-16
 CH2CO,ketene    5.083-13
 O(CH)2O         3.254-15
 HO(CO)2OH       4.467-16
 CH3CO,acetyl    1.216-16
 OCCN            9.975-13
 C2N2            2.210-14
 C2O             7.539-12
 C3O2            1.128-14
 *H              9.2244-3
 HCN             1.7065-7
 HCO             1.1332-6
 HCCO            4.053-13
 HNC             3.0833-8
 HNCO            1.2309-7
 HNO             1.0439-6
 HNO2            5.9187-8
 HNO3            1.818-12
 HO2             1.8884-6
 *H2             2.7413-2
 HCHO,formaldehy 1.9086-8
 HCOOH           4.4343-8
 H2O             6.9920-2
 H2O2            1.7376-7
 *N              4.6548-6
 NCO             3.3253-8
 *NH             1.1363-6
 NH2             3.8755-7
 NH3             2.6172-7
 NH2OH           6.366-11
 *NO             4.1191-3
 NO2             6.7511-7
 NO3             7.375-13
 *N2             6.6459-1
 NCN             5.345-13
 N2H2            5.393-11
 NH2NO2          1.608-16
 N2H4            1.063-15
 N2O             7.0274-7
 N2O3            3.601-14
 N3              3.354-11
 N3H             8.204-12
 *O              1.6509-3
 *OH             8.7546-3
 *O2             1.6604-3
 O3              3.291-10

  * THERMODYNAMIC PROPERTIES FITTED TO 20000.K









         THERMODYNAMIC EQUILIBRIUM COMBUSTION PROPERTIES AT ASSIGNED

                                     VOLUME

 CASE =                

             REACTANT                       MOLES         ENERGY      TEMP
                                                         KJ/KG-MOL      K
 FUEL        C2H2,acetylene               1.0000000    225787.177    300.000
 OXIDANT     O2                           2.5000000     -2439.995    300.000
 OXIDANT     N2                           9.4048000     -2440.472    300.000

 O/F=    8.24437  %FUEL= 10.817398  R,EQ.RATIO= 1.600000  PHI,EQ.RATIO= 1.600000

 THERMODYNAMIC PROPERTIES

 P, BAR            10.748
 T, K             3039.20
 RHO, KG/CU M    1.1391 0
 H, KJ/KG         1806.17
 U, KJ/KG          862.61
 G, KJ/KG        -27620.1
 S, KJ/(KG)(K)     9.6822

 M, (1/n)          26.781
 (dLV/dLP)t      -1.00662
 (dLV/dLT)p        1.1385
 Cp, KJ/(KG)(K)    2.3935
 GAMMAs            1.1926
 SON VEL,M/SEC     1060.8

 MOLE FRACTIONS

 *C              5.659-11
 *CH             1.469-11
 CH2             2.384-11
 CH3             3.857-11
 CH2OH           3.815-12
 CH3O            9.254-13
 CH4             8.812-12
 CH3OH           1.972-13
 *CN             8.8921-9
 CNN             9.221-15
 *CO             1.7752-1
 *CO2            4.5004-2
 COOH            4.7860-7
 *C2             3.051-16
 C2H             9.102-15
 C2H2,acetylene  1.709-13
 C2H2,vinylidene 5.894-16
 CH2CO,ketene    1.134-12
 O(CH)2O         5.352-15
 HO(CO)2OH       4.062-16
 CH3CO,acetyl    3.088-16
 CNC             1.906-16
 OCCN            1.660-12
 C2N2            4.988-14
 C2O             1.251-11
 C3O2            2.164-14
 *H              1.0223-2
 HCN             2.9206-7
 HCO             1.4292-6
 HCCO            7.762-13
 HNC             5.2490-8
 HNCO            1.5665-7
 HNO             8.4676-7
 HNO2            3.5482-8
 HNO3            7.959-13
 HO2             1.1287-6
 *H2             3.5407-2
 HCHO,formaldehy 2.7856-8
 HCOOH           4.8123-8
 H2O             6.7152-2
 H2O2            1.2019-7
 *N              4.3993-6
 NCO             3.6232-8
 *NH             1.2402-6
 NH2             4.9047-7
 NH3             3.8630-7
 NH2OH           6.826-11
 *NO             2.9304-3
 NO2             3.5094-7
 NO3             2.777-13
 *N2             6.5254-1
 NCN             7.718-13
 N2H2            6.772-11
 NH2NO2          1.090-16
 N2H4            1.762-15
 N2O             4.9770-7
 N2O3            1.348-14
 N3              3.154-11
 N3H             8.922-12
 *O              1.1622-3
 *OH             7.1791-3
 *O2             8.6953-4
 O3              1.235-10

  * THERMODYNAMIC PROPERTIES FITTED TO 20000.K









         THERMODYNAMIC EQUILIBRIUM COMBUSTION PROPERTIES AT ASSIGNED

                                     VOLUME

 CASE =                

             REACTANT                       MOLES         ENERGY      TEMP
                                                         KJ/KG-MOL      K
 FUEL        C2H2,acetylene               1.0000000    225787.177    300.000
 OXIDANT     O2                           2.5000000     -2439.995    300.000
 OXIDANT     N2                           9.4048000     -2440.472    300.000

 O/F=    7.75940  %FUEL= 11.416302  R,EQ.RATIO= 1.700000  PHI,EQ.RATIO= 1.700000

 THERMODYNAMIC PROPERTIES

 P, BAR            10.834
 T, K             3025.36
 RHO, KG/CU M    1.1391 0
 H, KJ/KG         1866.12
 U, KJ/KG          915.06
 G, KJ/KG        -27632.3
 S, KJ/(KG)(K)     9.7504

 M, (1/n)          26.449
 (dLV/dLP)t      -1.00562
 (dLV/dLT)p        1.1158
 Cp, KJ/(KG)(K)    2.2477
 GAMMAs            1.2026
 SON VEL,M/SEC     1069.5

 MOLE FRACTIONS

 *C              7.528-11
 *CH             2.254-11
 CH2             4.289-11
 CH3             8.182-11
 CH2OH           5.918-12
 CH3O            1.423-12
 CH4             2.189-11
 CH3OH           3.565-13
 *CN             1.2388-8
 CNN             1.230-14
 *CO             1.9507-1
 *CO2            3.6861-2
 COOH            4.2814-7
 *C2             6.081-16
 C2H             2.144-14
 C2H2,acetylene  4.827-13
 C2H2,vinylidene 1.614-15
 CH2CO,ketene    2.391-12
 O(CH)2O         8.231-15
 HO(CO)2OH       3.446-16
 CH3CO,acetyl    7.284-16
 CNC             3.874-16
 OCCN            2.610-12
 C2N2            1.077-13
 C2O             1.948-11
 C3O2            3.907-14
 *H              1.0974-2
 HCN             4.8468-7
 HCO             1.7231-6
 HCCO            1.393-12
 HNC             8.6148-8
 HNCO            1.9307-7
 HNO             6.5535-7
 HNO2            2.0138-8
 HNO3            3.233-13
 HO2             6.3475-7
 *H2             4.4695-2
 HCHO,formaldehy 3.8926-8
 HCOOH           4.9933-8
 H2O             6.2948-2
 H2O2            7.8319-8
 *N              3.9783-6
 NCO             3.7802-8
 *NH             1.2939-6
 NH2             5.9540-7
 NH3             5.5225-7
 NH2OH           6.906-11
 *NO             2.0183-3
 NO2             1.7313-7
 NO3             9.636-14
 *N2             6.4054-1
 NCN             1.055-12
 N2H2            8.114-11
 N2H4            2.749-15
 N2O             3.4069-7
 N2O3            4.633-15
 N3              2.839-11
 N3H             9.298-12
 *O              7.8094-4
 *OH             5.6655-3
 *O2             4.3425-4
 O3              4.242-11

  * THERMODYNAMIC PROPERTIES FITTED TO 20000.K









         THERMODYNAMIC EQUILIBRIUM COMBUSTION PROPERTIES AT ASSIGNED

                                     VOLUME

 CASE =                

             REACTANT                       MOLES         ENERGY      TEMP
                                                         KJ/KG-MOL      K
 FUEL        C2H2,acetylene               1.0000000    225787.177    300.000
 OXIDANT     O2                           2.5000000     -2439.995    300.000
 OXIDANT     N2                           9.4048000     -2440.472    300.000

 O/F=    7.32833  %FUEL= 12.007215  R,EQ.RATIO= 1.800000  PHI,EQ.RATIO= 1.800000

 THERMODYNAMIC PROPERTIES

 P, BAR            10.900
 T, K             3006.15
 RHO, KG/CU M    1.1391 0
 H, KJ/KG         1923.71
 U, KJ/KG          966.80
 G, KJ/KG        -27582.7
 S, KJ/(KG)(K)     9.8153

 M, (1/n)          26.120
 (dLV/dLP)t      -1.00484
 (dLV/dLT)p        1.0982
 Cp, KJ/(KG)(K)    2.1357
 GAMMAs            1.2120
 SON VEL,M/SEC     1076.9

 MOLE FRACTIONS

 *C              9.495-11
 *CH             3.268-11
 CH2             7.314-11
 CH3             1.654-10
 CH2OH           8.659-12
 CH3O            2.056-12
 CH4             5.195-11
 CH3OH           6.085-13
 *CN             1.6687-8
 CNN             1.562-14
 *CO             2.1123-1
 *CO2            2.9674-2
 COOH            3.6699-7
 *C2             1.137-15
 C2H             4.767-14
 C2H2,acetylene  1.303-12
 C2H2,vinylidene 4.168-15
 CH2CO,ketene    4.809-12
 O(CH)2O         1.194-14
 HO(CO)2OH       2.735-16
 C2H3,vinyl      2.557-16
 CH3CN           2.822-16
 CH3CO,acetyl    1.613-15
 C2H4            1.310-16
 CNC             7.452-16
 OCCN            3.932-12
 C2N2            2.258-13
 C2O             2.892-11
 C3O2            6.743-14
 *H              1.1462-2
 HCN             7.8520-7
 HCO             1.9996-6
 HCCO            2.374-12
 HNC             1.3741-7
 HNCO            2.3136-7
 HNO             4.8623-7
 HNO2            1.0856-8
 HNO3            1.223-13
 HO2             3.3740-7
 *H2             5.5135-2
 HCHO,formaldehy 5.2278-8
 HCOOH           4.9589-8
 H2O             5.7426-2
 H2O2            4.8164-8
 *N              3.4760-6
 NCO             3.8108-8
 *NH             1.3000-6
 NH2             6.9613-7
 NH3             7.6417-7
 NH2OH           6.605-11
 *NO             1.3512-3
 NO2             8.1490-8
 NO3             3.108-14
 *N2             6.2868-1
 NCN             1.385-12
 N2H2            9.327-11
 N2H4            4.051-15
 N2O             2.2641-7
 N2O3            1.477-15
 N3              2.471-11
 N3H             9.350-12
 *O              5.0443-4
 *OH             4.3147-3
 *O2             2.0768-4
 O3              1.348-11

  * THERMODYNAMIC PROPERTIES FITTED TO 20000.K









         THERMODYNAMIC EQUILIBRIUM COMBUSTION PROPERTIES AT ASSIGNED

                                     VOLUME

 CASE =                

             REACTANT                       MOLES         ENERGY      TEMP
                                                         KJ/KG-MOL      K
 FUEL        C2H2,acetylene               1.0000000    225787.177    300.000
 OXIDANT     O2                           2.5000000     -2439.995    300.000
 OXIDANT     N2                           9.4048000     -2440.472    300.000

 O/F=    6.94262  %FUEL= 12.590296  R,EQ.RATIO= 1.900000  PHI,EQ.RATIO= 1.900000

 THERMODYNAMIC PROPERTIES

 P, BAR            10.952
 T, K             2983.17
 RHO, KG/CU M    1.1391 0
 H, KJ/KG         1979.31
 U, KJ/KG         1017.85
 G, KJ/KG        -27486.3
 S, KJ/(KG)(K)     9.8773

 M, (1/n)          25.798
 (dLV/dLP)t      -1.00424
 (dLV/dLT)p        1.0849
 Cp, KJ/(KG)(K)    2.0526
 GAMMAs            1.2204
 SON VEL,M/SEC     1083.2

 MOLE FRACTIONS

 *C              1.156-10
 *CH             4.551-11
 CH2             1.198-10
 CH3             3.215-10
 CH2OH           1.202-11
 CH3O            2.812-12
 CH4             1.185-10
 CH3OH           9.837-13
 *CN             2.2024-8
 CNN             1.919-14
 *CO             2.2605-1
 *CO2            2.3434-2
 COOH            3.0202-7
 *C2             2.045-15
 C2H             1.022-13
 C2H2,acetylene  3.413-12
 C2H2,vinylidene 1.036-14
 CH2CO,ketene    9.323-12
 O(CH)2O         1.646-14
 HO(CO)2OH       2.028-16
 C2H3,vinyl      7.239-16
 CH3CN           8.495-16
 CH3CO,acetyl    3.395-15
 C2H4            4.400-16
 CNC             1.389-15
 OCCN            5.761-12
 C2N2            4.676-13
 C2O             4.160-11
 C3O2            1.128-13
 *H              1.1701-2
 HCN             1.2520-6
 HCO             2.2476-6
 HCCO            3.898-12
 HNC             2.1502-7
 HNCO            2.7056-7
 HNO             3.4682-7
 HNO2            5.5573-9
 HNO3            4.311-14
 HO2             1.6967-7
 *H2             6.6510-2
 HCHO,formaldehy 6.7750-8
 HCOOH           4.7117-8
 H2O             5.0792-2
 H2O2            2.7915-8
 *N              2.9608-6
 NCO             3.7416-8
 *NH             1.2668-6
 NH2             7.8736-7
 NH3             1.0240-6
 NH2OH           5.979-11
 *NO             8.8100-4
 NO2             3.6638-8
 NO3             9.341-15
 *N2             6.1703-1
 NCN             1.774-12
 N2H2            1.034-10
 N2H4            5.662-15
 N2O             1.4641-7
 N2O3            4.379-16
 N3              2.098-11
 N3H             9.132-12
 *O              3.1470-4
 *OH             3.1743-3
 *O2             9.5140-5
 O3              3.975-12

  * THERMODYNAMIC PROPERTIES FITTED TO 20000.K









         THERMODYNAMIC EQUILIBRIUM COMBUSTION PROPERTIES AT ASSIGNED

                                     VOLUME

 CASE =                

             REACTANT                       MOLES         ENERGY      TEMP
                                                         KJ/KG-MOL      K
 FUEL        C2H2,acetylene               1.0000000    225787.177    300.000
 OXIDANT     O2                           2.5000000     -2439.995    300.000
 OXIDANT     N2                           9.4048000     -2440.472    300.000

 O/F=    6.59549  %FUEL= 13.165701  R,EQ.RATIO= 2.000000  PHI,EQ.RATIO= 2.000000

 THERMODYNAMIC PROPERTIES

 P, BAR            10.992
 T, K             2957.72
 RHO, KG/CU M    1.1391 0
 H, KJ/KG         2033.25
 U, KJ/KG         1068.24
 G, KJ/KG        -27355.4
 S, KJ/(KG)(K)     9.9363

 M, (1/n)          25.484
 (dLV/dLP)t      -1.00378
 (dLV/dLT)p        1.0749
 Cp, KJ/(KG)(K)    1.9917
 GAMMAs            1.2277
 SON VEL,M/SEC     1088.5

 MOLE FRACTIONS

 *C              1.386-10
 *CH             6.199-11
 CH2             1.913-10
 CH3             6.088-10
 CH2OH           1.594-11
 CH3O            3.666-12
 CH4             2.626-10
 CH3OH           1.513-12
 *CN             2.8910-8
 CNN             2.325-14
 *CO             2.3965-1
 *CO2            1.8056-2
 COOH            2.3820-7
 *C2             3.645-15
 C2H             2.170-13
 C2H2,acetylene  8.869-12
 C2H2,vinylidene 2.534-14
 CH2CO,ketene    1.766-11
 O(CH)2O         2.174-14
 HO(CO)2OH       1.395-16
 C2H3,vinyl      2.006-15
 CH3CN           2.524-15
 CH3CO,acetyl    6.894-15
 C2H4            1.444-15
 CH3CHO,ethanal  2.045-16
 CNC             2.578-15
 OCCN            8.340-12
 C2N2            9.772-13
 C2O             5.898-11
 C3O2            1.859-13
 *H              1.1721-2
 HCN             1.9868-6
 HCO             2.4608-6
 HCCO            6.268-12
 HNC             3.3404-7
 HNCO            3.0986-7
 HNO             2.3755-7
 HNO2            2.6807-9
 HNO3            1.397-14
 HO2             8.0194-8
 *H2             7.8572-2
 HCHO,formaldehy 8.5087-8
 HCOOH           4.2691-8
 H2O             4.3293-2
 H2O2            1.5127-8
 *N              2.4766-6
 NCO             3.6017-8
 *NH             1.2048-6
 NH2             8.6543-7
 NH3             1.3311-6
 NH2OH           5.114-11
 *NO             5.5809-4
 NO2             1.5628-8
 NO3             2.591-15
 *N2             6.0565-1
 NCN             2.251-12
 N2H2            1.112-10
 N2H4            7.545-15
 N2O             9.1926-8
 N2O3            1.196-16
 N3              1.749-11
 N3H             8.715-12
 *O              1.8962-4
 *OH             2.2503-3
 *O2             4.1429-5
 O3              1.079-12

  * THERMODYNAMIC PROPERTIES FITTED TO 20000.K



