
 *******************************************************************************

         NASA-GLENN CHEMICAL EQUILIBRIUM PROGRAM CEA2, MAY 21, 2004
                   BY  BONNIE MCBRIDE AND SANFORD GORDON
      REFS: NASA RP-1311, PART I, 1994 AND NASA RP-1311, PART II, 1996

 *******************************************************************************



 problem    phi,eq.ratio=2.1,2.2,2.3,2.4,2.5,2.6,2.7,2.8,2.9,3,3.1,3.2,3.3,3.4,3.
 5,3.6,
       uv   rho,kg/m**3=1.6051,  t,k=3800
 react
   fuel=C2H5OH moles=1 t,k=300
   oxid=O2 moles=3 t,k=300
 output
      trace=1e-16 siunits short
 end




         THERMODYNAMIC EQUILIBRIUM COMBUSTION PROPERTIES AT ASSIGNED

                                     VOLUME

 CASE =                

             REACTANT                       MOLES         ENERGY      TEMP
                                                         KJ/KG-MOL      K
 FUEL        C2H5OH                       1.0000000   -237323.269    300.000
 OXIDANT     O2                           3.0000000     -2439.995    300.000

 O/F=    0.99228  %FUEL= 50.193868  R,EQ.RATIO= 1.814815  PHI,EQ.RATIO= 2.100000

 THERMODYNAMIC PROPERTIES

 P, BAR            22.207
 T, K             3013.88
 RHO, KG/CU M    1.6051 0
 H, KJ/KG        -1240.22
 U, KJ/KG        -2623.73
 G, KJ/KG        -42019.5
 S, KJ/(KG)(K)    13.5305

 M, (1/n)          18.112
 (dLV/dLP)t      -1.00682
 (dLV/dLT)p        1.1342
 Cp, KJ/(KG)(K)    3.6785
 GAMMAs            1.1816
 SON VEL,M/SEC     1278.6

 MOLE FRACTIONS

 *C              1.515-10
 *CH             1.634-10
 CH2             1.1356-9
 CH3             7.9482-9
 CH2OH           4.533-10
 CH3O            1.082-10
 CH4             7.7568-9
 CH3OH           9.924-11
 CH3OOH          4.377-16
 *CO             3.4278-1
 *CO2            5.1896-2
 COOH            2.0744-6
 *C2             5.540-15
 C2H             7.180-13
 C2H2,acetylene  6.016-11
 C2H2,vinylidene 1.959-13
 CH2CO,ketene    2.391-10
 O(CH)2O         6.475-13
 HO(CO)2OH       1.730-14
 C2H3,vinyl      3.770-14
 CH3CO,acetyl    2.557-13
 C2H4            5.977-14
 CH3CHO,ethanal  1.775-14
 CH3COOH         3.518-15
 OHCH2COOH       1.424-16
 C2O             1.479-10
 C3O2            1.111-12
 *H              1.8281-2
 HCO             1.0461-5
 HCCO            3.806-11
 HO2             6.4617-7
 *H2             2.7256-1
 HCHO,formaldehy 8.5465-7
 HCOOH           8.7556-7
 H2O             3.0659-1
 H2O2            2.8830-7
 *O              2.8173-4
 *OH             7.4745-3
 *O2             1.2521-4
 O3              9.164-12

  * THERMODYNAMIC PROPERTIES FITTED TO 20000.K









         THERMODYNAMIC EQUILIBRIUM COMBUSTION PROPERTIES AT ASSIGNED

                                     VOLUME

 CASE =                

             REACTANT                       MOLES         ENERGY      TEMP
                                                         KJ/KG-MOL      K
 FUEL        C2H5OH                       1.0000000   -237323.269    300.000
 OXIDANT     O2                           3.0000000     -2439.995    300.000

 O/F=    0.94717  %FUEL= 51.356537  R,EQ.RATIO= 1.878049  PHI,EQ.RATIO= 2.200000

 THERMODYNAMIC PROPERTIES

 P, BAR            21.901
 T, K             2916.09
 RHO, KG/CU M    1.6051 0
 H, KJ/KG        -1318.27
 U, KJ/KG        -2682.74
 G, KJ/KG        -41016.6
 S, KJ/(KG)(K)    13.6135

 M, (1/n)          17.769
 (dLV/dLP)t      -1.00485
 (dLV/dLT)p        1.0976
 Cp, KJ/(KG)(K)    3.3971
 GAMMAs            1.1920
 SON VEL,M/SEC     1275.3

 MOLE FRACTIONS

 *C              8.045-11
 *CH             1.057-10
 CH2             1.0103-9
 CH3             1.0135-8
 CH2OH           4.503-10
 CH3O            1.007-10
 CH4             1.3493-8
 CH3OH           1.300-10
 CH3OOH          3.234-16
 *CO             3.4875-1
 *CO2            4.7422-2
 COOH            1.5431-6
 *C2             3.489-15
 C2H             6.599-13
 C2H2,acetylene  8.978-11
 C2H2,vinylidene 2.320-13
 CH2CO,ketene    3.242-10
 O(CH)2O         6.717-13
 HO(CO)2OH       1.372-14
 C2H3,vinyl      5.362-14
 CH3CO,acetyl    3.372-13
 C2H4            1.216-13
 CH3CHO,ethanal  3.007-14
 CH3COOH         5.186-15
 OHCH2COOH       1.559-16
 C2H5            1.270-16
 C2O             1.185-10
 C3O2            1.256-12
 *H              1.4084-2
 HCO             8.9644-6
 HCCO            3.688-11
 HO2             2.5980-7
 *H2             2.9505-1
 HCHO,formaldehy 9.2504-7
 HCOOH           8.2744-7
 H2O             2.8984-1
 H2O2            1.4612-7
 *O              1.2631-4
 *OH             4.6662-3
 *O2             4.9333-5
 O3              1.795-12

  * THERMODYNAMIC PROPERTIES FITTED TO 20000.K









         THERMODYNAMIC EQUILIBRIUM COMBUSTION PROPERTIES AT ASSIGNED

                                     VOLUME

 CASE =                

             REACTANT                       MOLES         ENERGY      TEMP
                                                         KJ/KG-MOL      K
 FUEL        C2H5OH                       1.0000000   -237323.269    300.000
 OXIDANT     O2                           3.0000000     -2439.995    300.000

 O/F=    0.90599  %FUEL= 52.466161  R,EQ.RATIO= 1.939759  PHI,EQ.RATIO= 2.300000

 THERMODYNAMIC PROPERTIES

 P, BAR            21.539
 T, K             2815.21
 RHO, KG/CU M    1.6051 0
 H, KJ/KG        -1397.17
 U, KJ/KG        -2739.06
 G, KJ/KG        -39931.6
 S, KJ/(KG)(K)    13.6879

 M, (1/n)          17.443
 (dLV/dLP)t      -1.00339
 (dLV/dLT)p        1.0698
 Cp, KJ/(KG)(K)    3.1758
 GAMMAs            1.2025
 SON VEL,M/SEC     1270.3

 MOLE FRACTIONS

 *C              3.899-11
 *CH             6.315-11
 CH2             8.492-10
 CH3             1.2560-8
 CH2OH           4.322-10
 CH3O            9.004-11
 CH4             2.3392-8
 CH3OH           1.677-10
 CH3OOH          2.266-16
 *CO             3.5368-1
 *CO2            4.3631-2
 COOH            1.1202-6
 *C2             1.988-15
 C2H             5.657-13
 C2H2,acetylene  1.303-10
 C2H2,vinylidene 2.605-13
 CH2CO,ketene    4.318-10
 O(CH)2O         6.795-13
 HO(CO)2OH       1.077-14
 C2H3,vinyl      7.303-14
 CH3CO,acetyl    4.317-13
 C2H4            2.439-13
 CH3CHO,ethanal  5.027-14
 CH3COOH         7.594-15
 OHCH2COOH       1.679-16
 C2H5            2.377-16
 C2O             9.000-11
 C3O2            1.388-12
 *H              1.0474-2
 HCO             7.4500-6
 HCCO            3.422-11
 HO2             9.8155-8
 *H2             3.1628-1
 HCHO,formaldehy 9.8587-7
 HCOOH           7.7530-7
 H2O             2.7305-1
 H2O2            7.0608-8
 *O              5.3238-5
 *OH             2.8065-3
 *O2             1.8400-5
 O3              3.173-13

  * THERMODYNAMIC PROPERTIES FITTED TO 20000.K









         THERMODYNAMIC EQUILIBRIUM COMBUSTION PROPERTIES AT ASSIGNED

                                     VOLUME

 CASE =                

             REACTANT                       MOLES         ENERGY      TEMP
                                                         KJ/KG-MOL      K
 FUEL        C2H5OH                       1.0000000   -237323.269    300.000
 OXIDANT     O2                           3.0000000     -2439.995    300.000

 O/F=    0.86824  %FUEL= 53.526290  R,EQ.RATIO= 2.000000  PHI,EQ.RATIO= 2.400000

 THERMODYNAMIC PROPERTIES

 P, BAR            21.127
 T, K             2712.52
 RHO, KG/CU M    1.6051 0
 H, KJ/KG        -1476.60
 U, KJ/KG        -2792.86
 G, KJ/KG        -38785.0
 S, KJ/(KG)(K)    13.7542

 M, (1/n)          17.134
 (dLV/dLP)t      -1.00232
 (dLV/dLT)p        1.0490
 Cp, KJ/(KG)(K)    3.0032
 GAMMAs            1.2128
 SON VEL,M/SEC     1263.5

 MOLE FRACTIONS

 *C              1.728-11
 *CH             3.488-11
 CH2             6.761-10
 CH3             1.5177-8
 CH2OH           4.019-10
 CH3O            7.760-11
 CH4             4.0601-8
 CH3OH           2.143-10
 CH3OOH          1.510-16
 *CO             3.5772-1
 *CO2            4.0427-2
 COOH            7.9436-7
 *C2             1.028-15
 C2H             4.541-13
 C2H2,acetylene  1.846-10
 C2H2,vinylidene 2.785-13
 CH2CO,ketene    5.670-10
 O(CH)2O         6.727-13
 HO(CO)2OH       8.378-15
 C2H3,vinyl      9.575-14
 CH3CO,acetyl    5.390-13
 C2H4            4.846-13
 CH3CHO,ethanal  8.338-14
 CH3COOH         1.110-14
 OHCH2COOH       1.787-16
 C2H5            4.345-16
 C2H6            1.979-16
 C2O             6.494-11
 C3O2            1.505-12
 *H              7.5251-3
 HCO             6.0127-6
 HCCO            3.048-11
 HO2             3.4837-8
 *H2             3.3613-1
 HCHO,formaldehy 1.0369-6
 HCOOH           7.2164-7
 H2O             2.5653-1
 H2O2            3.2541-8
 *O              2.1085-5
 *OH             1.6263-3
 *O2             6.4897-6
 O3              5.057-14

  * THERMODYNAMIC PROPERTIES FITTED TO 20000.K









         THERMODYNAMIC EQUILIBRIUM COMBUSTION PROPERTIES AT ASSIGNED

                                     VOLUME

 CASE =                

             REACTANT                       MOLES         ENERGY      TEMP
                                                         KJ/KG-MOL      K
 FUEL        C2H5OH                       1.0000000   -237323.269    300.000
 OXIDANT     O2                           3.0000000     -2439.995    300.000

 O/F=    0.83351  %FUEL= 54.540164  R,EQ.RATIO= 2.058824  PHI,EQ.RATIO= 2.500000

 THERMODYNAMIC PROPERTIES

 P, BAR            20.676
 T, K             2609.15
 RHO, KG/CU M    1.6051 0
 H, KJ/KG        -1556.21
 U, KJ/KG        -2844.32
 G, KJ/KG        -37595.6
 S, KJ/(KG)(K)    13.8127

 M, (1/n)          16.841
 (dLV/dLP)t      -1.00155
 (dLV/dLT)p        1.0337
 Cp, KJ/(KG)(K)    2.8705
 GAMMAs            1.2228
 SON VEL,M/SEC     1255.0

 MOLE FRACTIONS

 *C              7.007-12
 *CH             1.786-11
 CH2             5.113-10
 CH3             1.7946-8
 CH2OH           3.631-10
 CH3O            6.466-11
 CH4             7.0867-8
 CH3OH           2.718-10
 *CO             3.6104-1
 *CO2            3.7727-2
 COOH            5.5076-7
 *C2             4.839-16
 C2H             3.424-13
 C2H2,acetylene  2.565-10
 C2H2,vinylidene 2.847-13
 CH2CO,ketene    7.368-10
 O(CH)2O         6.537-13
 HO(CO)2OH       6.480-15
 C2H3,vinyl      1.214-13
 CH3CO,acetyl    6.592-13
 C2H4            9.597-13
 CH3CHO,ethanal  1.379-13
 CH3COOH         1.628-14
 OHCH2COOH       1.889-16
 C2H5            7.808-16
 C2H6            5.142-16
 C2O             4.461-11
 C3O2            1.605-12
 *H              5.2257-3
 HCO             4.7188-6
 HCCO            2.615-11
 HO2             1.1610-8
 *H2             3.5459-1
 HCHO,formaldehy 1.0784-6
 HCOOH           6.6840-7
 H2O             2.4049-1
 H2O2            1.4307-8
 *O              7.8416-6
 *OH             9.0793-4
 *O2             2.1617-6
 O3              7.258-15

  * THERMODYNAMIC PROPERTIES FITTED TO 20000.K









         THERMODYNAMIC EQUILIBRIUM COMBUSTION PROPERTIES AT ASSIGNED

                                     VOLUME

 CASE =                

             REACTANT                       MOLES         ENERGY      TEMP
                                                         KJ/KG-MOL      K
 FUEL        C2H5OH                       1.0000000   -237323.269    300.000
 OXIDANT     O2                           3.0000000     -2439.995    300.000

 O/F=    0.80145  %FUEL= 55.510744  R,EQ.RATIO= 2.116279  PHI,EQ.RATIO= 2.600000

 THERMODYNAMIC PROPERTIES

 P, BAR            20.191
 T, K             2506.11
 RHO, KG/CU M    1.6051 0
 H, KJ/KG        -1635.67
 U, KJ/KG        -2893.58
 G, KJ/KG        -36380.4
 S, KJ/(KG)(K)    13.8640

 M, (1/n)          16.565
 (dLV/dLP)t      -1.00101
 (dLV/dLT)p        1.0226
 Cp, KJ/(KG)(K)    2.7704
 GAMMAs            1.2322
 SON VEL,M/SEC     1245.0

 MOLE FRACTIONS

 *C              2.606-12
 *CH             8.499-12
 CH2             3.682-10
 CH3             2.0830-8
 CH2OH           3.196-10
 CH3O            5.222-11
 CH4             1.2490-7
 CH3OH           3.436-10
 *CO             3.6374-1
 *CO2            3.5455-2
 COOH            3.7361-7
 *C2             2.078-16
 C2H             2.434-13
 C2H2,acetylene  3.508-10
 C2H2,vinylidene 2.793-13
 CH2CO,ketene    9.506-10
 O(CH)2O         6.254-13
 HO(CO)2OH       4.990-15
 C2H3,vinyl      1.496-13
 CH3CO,acetyl    7.931-13
 C2H4            1.905-12
 CH3CHO,ethanal  2.286-13
 CH3COOH         2.405-14
 OHCH2COOH       1.991-16
 C2H5            1.388-15
 C2H6            1.355-15
 C2O             2.924-11
 C3H3,2-propynl  1.463-16
 C3O2            1.688-12
 *H              3.5101-3
 HCO             3.6055-6
 HCCO            2.166-11
 HO2             3.6310-9
 *H2             3.7173-1
 HCHO,formaldehy 1.1114-6
 HCOOH           6.1693-7
 H2O             2.2507-1
 H2O2            6.0010-9
 *O              2.7372-6
 *OH             4.8831-4
 *O2             6.7923-7
 O3              9.370-16

  * THERMODYNAMIC PROPERTIES FITTED TO 20000.K









         THERMODYNAMIC EQUILIBRIUM COMBUSTION PROPERTIES AT ASSIGNED

                                     VOLUME

 CASE =                

             REACTANT                       MOLES         ENERGY      TEMP
                                                         KJ/KG-MOL      K
 FUEL        C2H5OH                       1.0000000   -237323.269    300.000
 OXIDANT     O2                           3.0000000     -2439.995    300.000

 O/F=    0.77177  %FUEL= 56.440747  R,EQ.RATIO= 2.172414  PHI,EQ.RATIO= 2.700000

 THERMODYNAMIC PROPERTIES

 P, BAR            19.680
 T, K             2404.28
 RHO, KG/CU M    1.6051 0
 H, KJ/KG        -1714.67
 U, KJ/KG        -2940.78
 G, KJ/KG        -35154.5
 S, KJ/(KG)(K)    13.9084

 M, (1/n)          16.304
 (dLV/dLP)t      -1.00064
 (dLV/dLT)p        1.0148
 Cp, KJ/(KG)(K)    2.6967
 GAMMAs            1.2409
 SON VEL,M/SEC     1233.5

 MOLE FRACTIONS

 *C              8.899-13
 *CH             3.765-12
 CH2             2.532-10
 CH3             2.3804-8
 CH2OH           2.747-10
 CH3O            4.100-11
 CH4             2.2308-7
 CH3OH           4.340-10
 *CO             3.6594-1
 *CO2            3.3548-2
 COOH            2.4812-7
 C2H             1.637-13
 C2H2,acetylene  4.743-10
 C2H2,vinylidene 2.639-13
 CH2CO,ketene    1.2212-9
 O(CH)2O         5.905-13
 HO(CO)2OH       3.832-15
 C2H3,vinyl      1.800-13
 CH3CO,acetyl    9.423-13
 C2H4            3.807-12
 CH3CHO,ethanal  3.813-13
 CH3COOH         3.593-14
 OHCH2COOH       2.098-16
 C2H5            2.455-15
 C2H6            3.642-15
 C2O             1.833-11
 C3H3,2-propynl  2.323-16
 C3O2            1.756-12
 *H              2.2823-3
 HCO             2.6852-6
 HCCO            1.737-11
 HO2             1.0654-9
 *H2             3.8764-1
 HCHO,formaldehy 1.1367-6
 HCOOH           5.6817-7
 H2O             2.1033-1
 H2O2            2.4018-9
 *O              8.9650-7
 *OH             2.5301-4
 *O2             2.0111-7
 O3              1.087-16

  * THERMODYNAMIC PROPERTIES FITTED TO 20000.K









         THERMODYNAMIC EQUILIBRIUM COMBUSTION PROPERTIES AT ASSIGNED

                                     VOLUME

 CASE =                

             REACTANT                       MOLES         ENERGY      TEMP
                                                         KJ/KG-MOL      K
 FUEL        C2H5OH                       1.0000000   -237323.269    300.000
 OXIDANT     O2                           3.0000000     -2439.995    300.000

 O/F=    0.74421  %FUEL= 57.332664  R,EQ.RATIO= 2.227273  PHI,EQ.RATIO= 2.800000

 THERMODYNAMIC PROPERTIES

 P, BAR            19.151
 T, K             2304.36
 RHO, KG/CU M    1.6051 0
 H, KJ/KG        -1792.90
 U, KJ/KG        -2986.05
 G, KJ/KG        -33930.3
 S, KJ/(KG)(K)    13.9464

 M, (1/n)          16.058
 (dLV/dLP)t      -1.00040
 (dLV/dLT)p        1.0095
 Cp, KJ/(KG)(K)    2.6437
 GAMMAs            1.2487
 SON VEL,M/SEC     1220.6

 MOLE FRACTIONS

 *C              2.796-13
 *CH             1.556-12
 CH2             1.666-10
 CH3             2.6855-8
 CH2OH           2.311-10
 CH3O            3.136-11
 CH4             4.0506-7
 CH3OH           5.494-10
 *CO             3.6773-1
 *CO2            3.1952-2
 COOH            1.6139-7
 C2H             1.045-13
 C2H2,acetylene  6.358-10
 C2H2,vinylidene 2.411-13
 CH2CO,ketene    1.5667-9
 O(CH)2O         5.515-13
 HO(CO)2OH       2.938-15
 C2H3,vinyl      2.122-13
 CH3CO,acetyl    1.109-12
 C2H4            7.695-12
 C2H4O,ethylen-o 1.243-16
 CH3CHO,ethanal  6.425-13
 CH3COOH         5.448-14
 OHCH2COOH       2.217-16
 C2H5            4.341-15
 C2H6            1.004-14
 C2O             1.100-11
 C3H3,2-propynl  3.643-16
 C3H4,propyne    1.299-16
 C3O2            1.811-12
 *H              1.4373-3
 HCO             1.9512-6
 HCCO            1.351-11
 HO2             2.931-10
 *H2             4.0243-1
 HCHO,formaldehy 1.1557-6
 HCOOH           5.2264-7
 H2O             1.9631-1
 H2O2            9.172-10
 *O              2.7541-7
 *OH             1.2627-4
 *O2             5.6055-8

  * THERMODYNAMIC PROPERTIES FITTED TO 20000.K









         THERMODYNAMIC EQUILIBRIUM COMBUSTION PROPERTIES AT ASSIGNED

                                     VOLUME

 CASE =                

             REACTANT                       MOLES         ENERGY      TEMP
                                                         KJ/KG-MOL      K
 FUEL        C2H5OH                       1.0000000   -237323.269    300.000
 OXIDANT     O2                           3.0000000     -2439.995    300.000

 O/F=    0.71854  %FUEL= 58.188788  R,EQ.RATIO= 2.280899  PHI,EQ.RATIO= 2.900000

 THERMODYNAMIC PROPERTIES

 P, BAR            18.609
 T, K             2206.87
 RHO, KG/CU M    1.6051 0
 H, KJ/KG        -1870.13
 U, KJ/KG        -3029.50
 G, KJ/KG        -32718.0
 S, KJ/(KG)(K)    13.9781

 M, (1/n)          15.827
 (dLV/dLP)t      -1.00024
 (dLV/dLT)p        1.0059
 Cp, KJ/(KG)(K)    2.6067
 GAMMAs            1.2558
 SON VEL,M/SEC     1206.6

 MOLE FRACTIONS

 *C              8.086-14
 *CH             6.006-13
 CH2             1.051-10
 CH3             2.9976-8
 CH2OH           1.905-10
 CH3O            2.342-11
 CH4             7.4990-7
 CH3OH           6.983-10
 *CO             3.6919-1
 *CO2            3.0623-2
 COOH            1.0284-7
 C2H             6.348-14
 C2H2,acetylene  8.476-10
 C2H2,vinylidene 2.136-13
 CH2CO,ketene    2.0119-9
 O(CH)2O         5.105-13
 HO(CO)2OH       2.250-15
 C2H3,vinyl      2.460-13
 CH3CO,acetyl    1.298-12
 C2H4            1.579-11
 C2H4O,ethylen-o 1.620-16
 CH3CHO,ethanal  1.097-12
 CH3COOH         8.406-14
 OHCH2COOH       2.357-16
 C2H5            7.709-15
 C2H6            2.852-14
 C2H5OH          1.524-16
 C2O             6.339-12
 C3H3,2-propynl  5.671-16
 C3H4,allene     1.208-16
 C3H4,propyne    2.863-16
 C3O2            1.856-12
 *H              8.7708-4
 HCO             1.3843-6
 HCCO            1.022-11
 HO2             7.555-11
 *H2             4.1624-1
 HCHO,formaldehy 1.1693-6
 HCOOH           4.8059-7
 H2O             1.8301-1
 H2O2            3.340-10
 *O              7.9304-8
 *OH             6.0683-5
 *O2             1.4687-8

  * THERMODYNAMIC PROPERTIES FITTED TO 20000.K









         THERMODYNAMIC EQUILIBRIUM COMBUSTION PROPERTIES AT ASSIGNED

                                     VOLUME

 CASE =                

             REACTANT                       MOLES         ENERGY      TEMP
                                                         KJ/KG-MOL      K
 FUEL        C2H5OH                       1.0000000   -237323.269    300.000
 OXIDANT     O2                           3.0000000     -2439.995    300.000

 O/F=    0.69459  %FUEL= 59.011232  R,EQ.RATIO= 2.333333  PHI,EQ.RATIO= 3.000000

 THERMODYNAMIC PROPERTIES

 P, BAR            18.059
 T, K             2112.17
 RHO, KG/CU M    1.6051 0
 H, KJ/KG        -1946.16
 U, KJ/KG        -3071.24
 G, KJ/KG        -31524.9
 S, KJ/(KG)(K)    14.0039

 M, (1/n)          15.609
 (dLV/dLP)t      -1.00014
 (dLV/dLT)p        1.0036
 Cp, KJ/(KG)(K)    2.5816
 GAMMAs            1.2621
 SON VEL,M/SEC     1191.6

 MOLE FRACTIONS

 *C              2.153-14
 *CH             2.167-13
 CH2             6.367-11
 CH3             3.3172-8
 CH2OH           1.541-10
 CH3O            1.709-11
 CH4             1.4193-6
 CH3OH           8.930-10
 *CO             3.7036-1
 *CO2            2.9526-2
 COOH            6.4187-8
 C2H             3.676-14
 C2H2,acetylene  1.1269-9
 C2H2,vinylidene 1.838-13
 CH2CO,ketene    2.5914-9
 O(CH)2O         4.690-13
 HO(CO)2OH       1.723-15
 C2H3,vinyl      2.812-13
 CH3CO,acetyl    1.513-12
 C2H4            3.304-11
 C2H4O,ethylen-o 2.114-16
 CH3CHO,ethanal  1.906-12
 CH3COOH         1.324-13
 OHCH2COOH       2.524-16
 C2H5            1.380-14
 C2H6            8.390-14
 C2H5OH          3.139-16
 C2O             3.506-12
 C3H3,2-propynl  8.797-16
 C3H4,allene     2.659-16
 C3H4,propyne    6.412-16
 C3O2            1.893-12
 *H              5.1860-4
 HCO             9.5930-7
 HCCO            7.524-12
 HO2             1.821-11
 *H2             4.2917-1
 HCHO,formaldehy 1.1786-6
 HCOOH           4.4207-7
 H2O             1.7039-1
 H2O2            1.159-10
 *O              2.1375-8
 *OH             2.8060-5
 *O2             3.6102-9

  * THERMODYNAMIC PROPERTIES FITTED TO 20000.K









         THERMODYNAMIC EQUILIBRIUM COMBUSTION PROPERTIES AT ASSIGNED

                                     VOLUME

 CASE =                

             REACTANT                       MOLES         ENERGY      TEMP
                                                         KJ/KG-MOL      K
 FUEL        C2H5OH                       1.0000000   -237323.269    300.000
 OXIDANT     O2                           3.0000000     -2439.995    300.000

 O/F=    0.67219  %FUEL= 59.801944  R,EQ.RATIO= 2.384615  PHI,EQ.RATIO= 3.100000

 THERMODYNAMIC PROPERTIES

 P, BAR            17.504
 T, K             2020.47
 RHO, KG/CU M    1.6051 0
 H, KJ/KG        -2020.85
 U, KJ/KG        -3111.37
 G, KJ/KG        -30356.3
 S, KJ/(KG)(K)    14.0242

 M, (1/n)          15.405
 (dLV/dLP)t      -1.00009
 (dLV/dLT)p        1.0022
 Cp, KJ/(KG)(K)    2.5651
 GAMMAs            1.2678
 SON VEL,M/SEC     1175.8

 MOLE FRACTIONS

 *C              5.274-15
 *CH             7.306-14
 CH2             3.703-11
 CH3             3.6450-8
 CH2OH           1.225-10
 CH3O            1.220-11
 CH4             2.7537-6
 CH3OH           1.1511-9
 *CO             3.7130-1
 *CO2            2.8632-2
 COOH            3.9223-8
 C2H             2.031-14
 C2H2,acetylene  1.4975-9
 C2H2,vinylidene 1.540-13
 CH2CO,ketene    3.3547-9
 O(CH)2O         4.283-13
 HO(CO)2OH       1.319-15
 C2H3,vinyl      3.178-13
 CH3CO,acetyl    1.762-12
 C2H4            7.069-11
 C2H4O,ethylen-o 2.770-16
 CH3CHO,ethanal  3.376-12
 CH3COOH         2.134-13
 OHCH2COOH       2.730-16
 C2H5            2.501-14
 C2H6            2.569-13
 C2H5OH          6.642-16
 C2O             1.862-12
 C3H3,2-propynl  1.365-15
 C3H4,allene     5.966-16
 C3H4,propyne    1.466-15
 C3O2            1.923-12
 *H              2.9699-4
 HCO             6.4931-7
 HCCO            5.399-12
 HO2             4.096-12
 *H2             4.4132-1
 HCHO,formaldehy 1.1845-6
 HCOOH           4.0697-7
 H2O             1.5843-1
 H2O2            3.825-11
 *O              5.3809-9
 *OH             1.2468-5
 *O2             8.302-10

  * THERMODYNAMIC PROPERTIES FITTED TO 20000.K









         THERMODYNAMIC EQUILIBRIUM COMBUSTION PROPERTIES AT ASSIGNED

                                     VOLUME

 CASE =                

             REACTANT                       MOLES         ENERGY      TEMP
                                                         KJ/KG-MOL      K
 FUEL        C2H5OH                       1.0000000   -237323.269    300.000
 OXIDANT     O2                           3.0000000     -2439.995    300.000

 O/F=    0.65118  %FUEL= 60.562727  R,EQ.RATIO= 2.434783  PHI,EQ.RATIO= 3.200000

 THERMODYNAMIC PROPERTIES

 P, BAR            16.948
 T, K             1931.86
 RHO, KG/CU M    1.6051 0
 H, KJ/KG        -2094.10
 U, KJ/KG        -3149.98
 G, KJ/KG        -29215.5
 S, KJ/(KG)(K)    14.0390

 M, (1/n)          15.212
 (dLV/dLP)t      -1.00007
 (dLV/dLT)p        1.0014
 Cp, KJ/(KG)(K)    2.5547
 GAMMAs            1.2730
 SON VEL,M/SEC     1159.4

 MOLE FRACTIONS

 *C              1.185-15
 *CH             2.298-14
 CH2             2.068-11
 CH3             3.9826-8
 CH2OH           9.567-11
 CH3O            8.521-12
 CH4             5.4921-6
 CH3OH           1.4979-9
 *CO             3.7204-1
 *CO2            2.7921-2
 COOH            2.3445-8
 C2H             1.071-14
 C2H2,acetylene  1.9936-9
 C2H2,vinylidene 1.258-13
 CH2CO,ketene    4.3727-9
 O(CH)2O         3.890-13
 HO(CO)2OH       1.010-15
 C2H3,vinyl      3.558-13
 CH3CO,acetyl    2.052-12
 C2H4            1.553-10
 C2H4O,ethylen-o 3.654-16
 CH3CHO,ethanal  6.117-12
 CH3COOH         3.528-13
 OHCH2COOH       2.985-16
 C2H5            4.603-14
 C2H6            8.224-13
 C2H5OH          1.450-15
 C2O             9.494-13
 C3H3,2-propynl  2.125-15
 C3H4,allene     1.371-15
 C3H4,propyne    3.436-15
 C3H6,propylene  2.219-16
 C3O2            1.951-12
 *H              1.6458-4
 HCO             4.2909-7
 HCCO            3.776-12
 HO2             8.564-13
 *H2             4.5279-1
 HCHO,formaldehy 1.1877-6
 HCOOH           3.7512-7
 H2O             1.4707-1
 H2O2            1.197-11
 *O              1.2611-9
 *OH             5.3138-6
 *O2             1.780-10

  * THERMODYNAMIC PROPERTIES FITTED TO 20000.K









         THERMODYNAMIC EQUILIBRIUM COMBUSTION PROPERTIES AT ASSIGNED

                                     VOLUME

 CASE =                

             REACTANT                       MOLES         ENERGY      TEMP
                                                         KJ/KG-MOL      K
 FUEL        C2H5OH                       1.0000000   -237323.269    300.000
 OXIDANT     O2                           3.0000000     -2439.995    300.000

 O/F=    0.63145  %FUEL= 61.295247  R,EQ.RATIO= 2.483871  PHI,EQ.RATIO= 3.300000

 THERMODYNAMIC PROPERTIES

 P, BAR            16.393
 T, K             1846.34
 RHO, KG/CU M    1.6051 0
 H, KJ/KG        -2165.87
 U, KJ/KG        -3187.16
 G, KJ/KG        -28104.5
 S, KJ/(KG)(K)    14.0487

 M, (1/n)          15.031
 (dLV/dLP)t      -1.00007
 (dLV/dLT)p        1.0010
 Cp, KJ/(KG)(K)    2.5488
 GAMMAs            1.2778
 SON VEL,M/SEC     1142.4

 MOLE FRACTIONS

 *C              2.435-16
 *CH             6.726-15
 CH2             1.108-11
 CH3             4.3318-8
 CH2OH           7.343-11
 CH3O            5.825-12
 CH4             1.1293-5
 CH3OH           1.9712-9
 *CO             3.7260-1
 *CO2            2.7374-2
 COOH            1.3692-8
 C2H             5.387-15
 C2H2,acetylene  2.6639-9
 C2H2,vinylidene 1.002-13
 CH2CO,ketene    5.7487-9
 O(CH)2O         3.517-13
 HO(CO)2OH       7.732-16
 C2H3,vinyl      3.953-13
 CH3CO,acetyl    2.395-12
 C2H4            3.515-10
 C2H4O,ethylen-o 4.862-16
 CH3CHO,ethanal  1.137-11
 CH3COOH         6.004-13
 OHCH2COOH       3.306-16
 C2H5            8.635-14
 C2H6            2.767-12
 C2H5OH          3.275-15
 C2O             4.641-13
 C3H3,2-propynl  3.331-15
 C3H4,allene     3.242-15
 C3H4,propyne    8.292-15
 C3H6,propylene  8.674-16
 C3O2            1.976-12
 *H              8.8131-5
 HCO             2.7662-7
 HCCO            2.574-12
 HO2             1.657-13
 *H2             4.6365-1
 HCHO,formaldehy 1.1887-6
 HCOOH           3.4628-7
 H2O             1.3627-1
 H2O2            3.545-12
 *O              2.741-10
 *OH             2.1669-6
 *O2             3.539-11

  * THERMODYNAMIC PROPERTIES FITTED TO 20000.K









         THERMODYNAMIC EQUILIBRIUM COMBUSTION PROPERTIES AT ASSIGNED

                                     VOLUME

 CASE =                

             REACTANT                       MOLES         ENERGY      TEMP
                                                         KJ/KG-MOL      K
 FUEL        C2H5OH                       1.0000000   -237323.269    300.000
 OXIDANT     O2                           3.0000000     -2439.995    300.000

 O/F=    0.61288  %FUEL= 62.001052  R,EQ.RATIO= 2.531915  PHI,EQ.RATIO= 3.400000

 THERMODYNAMIC PROPERTIES

 P, BAR            15.840
 T, K             1763.88
 RHO, KG/CU M    1.6051 0
 H, KJ/KG        -2236.11
 U, KJ/KG        -3222.98
 G, KJ/KG        -27024.6
 S, KJ/(KG)(K)    14.0534

 M, (1/n)          14.861
 (dLV/dLP)t      -1.00011
 (dLV/dLT)p        1.0011
 Cp, KJ/(KG)(K)    2.5467
 GAMMAs            1.2822
 SON VEL,M/SEC     1124.9

 MOLE FRACTIONS

 *CH             1.826-15
 CH2             5.692-12
 CH3             4.6949-8
 CH2OH           5.537-11
 CH3O            3.894-12
 CH4             2.4014-5
 CH3OH           2.6271-9
 *CO             3.7300-1
 *CO2            2.6982-2
 COOH            7.8007-9
 C2H             2.581-15
 C2H2,acetylene  3.5797-9
 C2H2,vinylidene 7.783-14
 CH2CO,ketene    7.6358-9
 O(CH)2O         3.167-13
 HO(CO)2OH       5.916-16
 C2H3,vinyl      4.365-13
 CH3CO,acetyl    2.807-12
 C2H4            8.231-10
 C2H4O,ethylen-o 6.540-16
 CH3CHO,ethanal  2.176-11
 CH3COOH         1.054-12
 OHCH2COOH       3.714-16
 C2H5            1.657-13
 C2H6            9.839-12
 C2H5OH          7.694-15
 C2O             2.172-13
 C3H3,2-propynl  5.273-15
 C3H4,allene     7.921-15
 C3H4,propyne    2.070-14
 C3H5,allyl      2.409-16
 C3H6,propylene  3.600-15
 C3O2            2.002-12
 *H              4.5525-5
 HCO             1.7378-7
 HCCO            1.709-12
 HO2             2.951-14
 *H2             4.7396-1
 HCHO,formaldehy 1.1881-6
 HCOOH           3.2022-7
 H2O             1.2599-1
 H2O2            9.888-13
 *O              5.496-11
 *OH             8.4306-7
 *O2             6.496-12

  * THERMODYNAMIC PROPERTIES FITTED TO 20000.K









         THERMODYNAMIC EQUILIBRIUM COMBUSTION PROPERTIES AT ASSIGNED

                                     VOLUME

 CASE =                

             REACTANT                       MOLES         ENERGY      TEMP
                                                         KJ/KG-MOL      K
 FUEL        C2H5OH                       1.0000000   -237323.269    300.000
 OXIDANT     O2                           3.0000000     -2439.995    300.000

 O/F=    0.59537  %FUEL= 62.681576  R,EQ.RATIO= 2.578947  PHI,EQ.RATIO= 3.500000

 THERMODYNAMIC PROPERTIES

 P, BAR            15.292
 T, K             1684.44
 RHO, KG/CU M    1.6051 0
 H, KJ/KG        -2304.82
 U, KJ/KG        -3257.52
 G, KJ/KG        -25976.7
 S, KJ/(KG)(K)    14.0532

 M, (1/n)          14.701
 (dLV/dLP)t      -1.00022
 (dLV/dLT)p        1.0019
 Cp, KJ/(KG)(K)    2.5493
 GAMMAs            1.2862
 SON VEL,M/SEC     1106.9

 MOLE FRACTIONS

 *CH             4.583-16
 CH2             2.797-12
 CH3             5.0741-8
 CH2OH           4.100-11
 CH3O            2.545-12
 CH4             5.2952-5
 CH3OH           3.5508-9
 *CO             3.7325-1
 *CO2            2.6735-2
 COOH            4.3293-9
 C2H             1.177-15
 C2H2,acetylene  4.8455-9
 C2H2,vinylidene 5.899-14
 CH2CO,ketene    1.0262-8
 O(CH)2O         2.841-13
 HO(CO)2OH       4.524-16
 C2H3,vinyl      4.796-13
 CH3CO,acetyl    3.306-12
 C2H4            2.0002-9
 C2H4O,ethylen-o 8.911-16
 CH3CHO,ethanal  4.298-11
 CH3COOH         1.916-12
 OHCH2COOH       4.238-16
 C2H5            3.260-13
 C2H6            3.715-11
 C2H5OH          1.886-14
 C2O             9.713-14
 C3H3,2-propynl  8.449-15
 C3H4,allene     2.008-14
 C3H4,propyne    5.367-14
 C3H5,allyl      6.595-16
 C3H6,propylene  1.596-14
 C3H6O,acetone   1.627-16
 C3O2            2.029-12
 *H              2.2645-5
 HCO             1.0627-7
 HCCO            1.105-12
 HO2             4.815-15
 *H2             4.8375-1
 HCHO,formaldehy 1.1863-6
 HCOOH           2.9670-7
 H2O             1.1619-1
 H2O2            2.589-13
 *O              1.012-11
 *OH             3.1207-7
 *O2             1.095-12

  * THERMODYNAMIC PROPERTIES FITTED TO 20000.K









         THERMODYNAMIC EQUILIBRIUM COMBUSTION PROPERTIES AT ASSIGNED

                                     VOLUME

 CASE =                

             REACTANT                       MOLES         ENERGY      TEMP
                                                         KJ/KG-MOL      K
 FUEL        C2H5OH                       1.0000000   -237323.269    300.000
 OXIDANT     O2                           3.0000000     -2439.995    300.000

 O/F=    0.57883  %FUEL= 63.338153  R,EQ.RATIO= 2.625000  PHI,EQ.RATIO= 3.600000

 THERMODYNAMIC PROPERTIES

 P, BAR            14.749
 T, K             1608.08
 RHO, KG/CU M    1.6051 0
 H, KJ/KG        -2371.93
 U, KJ/KG        -3290.84
 G, KJ/KG        -24962.9
 S, KJ/(KG)(K)    14.0484

 M, (1/n)          14.550
 (dLV/dLP)t      -1.00049
 (dLV/dLT)p        1.0043
 Cp, KJ/(KG)(K)    2.5611
 GAMMAs            1.2896
 SON VEL,M/SEC     1088.6

 MOLE FRACTIONS

 *CH             1.061-16
 CH2             1.314-12
 CH3             5.4711-8
 CH2OH           2.982-11
 CH3O            1.625-12
 CH4             1.2127-4
 CH3OH           4.8711-9
 *CO             3.7334-1
 *CO2            2.6629-2
 COOH            2.3387-9
 C2H             5.103-16
 C2H2,acetylene  6.6133-9
 C2H2,vinylidene 4.362-14
 CH2CO,ketene    1.3969-8
 O(CH)2O         2.540-13
 HO(CO)2OH       3.457-16
 C2H3,vinyl      5.248-13
 CH3CO,acetyl    3.918-12
 C2H4            5.0559-9
 C2H4O,ethylen-o 1.231-15
 CH3CHO,ethanal  8.776-11
 CH3COOH         3.608-12
 OHCH2COOH       4.916-16
 C2H5            6.592-13
 C2H6            1.494-10
 C2H5OH          4.833-14
 CH3OCH3         1.812-16
 C2O             4.147-14
 C3H3,2-propynl  1.373-14
 C3H4,allene     5.292-14
 C3H4,propyne    1.448-13
 C3H5,allyl      1.886-15
 C3H6,propylene  7.581-14
 C3H6,cyclo-     1.605-16
 C3H6O,acetone   6.684-16
 C3H6O,propanal  2.542-16
 C3H8            5.091-16
 C3O2            2.059-12
 *H              1.0837-5
 HCO             6.3217-8
 HCCO            6.956-13
 HO2             7.172-16
 *H2             4.9304-1
 HCHO,formaldehy 1.1834-6
 HCOOH           2.7552-7
 H2O             1.0686-1
 H2O2            6.347-14
 *O              1.708-12
 *OH             1.0973-7
 *O2             1.689-13

  * THERMODYNAMIC PROPERTIES FITTED TO 20000.K



