
 *******************************************************************************

         NASA-GLENN CHEMICAL EQUILIBRIUM PROGRAM CEA2, MAY 21, 2004
                   BY  BONNIE MCBRIDE AND SANFORD GORDON
      REFS: NASA RP-1311, PART I, 1994 AND NASA RP-1311, PART II, 1996

 *******************************************************************************



 problem    phi,eq.ratio=0.5,0.6,0.7,0.8,0.9,1,1.1,1.2,1.3,1.4,1.5,1.6,1.7,1.8,1.
 9,2,
       uv   rho,kg/m**3=1.2541,  t,k=3800
 react
   fuel=C2H6 moles=1 t,k=300
   oxid=O2 moles=3.5 t,k=300
 output
      trace=1e-16 siunits short
 end




         THERMODYNAMIC EQUILIBRIUM COMBUSTION PROPERTIES AT ASSIGNED

                                     VOLUME

 CASE =                

             REACTANT                       MOLES         ENERGY      TEMP
                                                         KJ/KG-MOL      K
 FUEL        C2H6                         1.0000000    -86248.563    300.000
 OXIDANT     O2                           3.5000000     -2439.995    300.000

 O/F=    7.44924  %FUEL= 11.835379  R,EQ.RATIO= 0.500000  PHI,EQ.RATIO= 0.500000

 THERMODYNAMIC PROPERTIES

 P, BAR            12.768
 T, K             3306.03
 RHO, KG/CU M    1.2541 0
 H, KJ/KG          611.39
 U, KJ/KG         -406.71
 G, KJ/KG        -33678.8
 S, KJ/(KG)(K)    10.3720

 M, (1/n)          26.999
 (dLV/dLP)t      -1.03933
 (dLV/dLT)p        1.7600
 Cp, KJ/(KG)(K)    6.2906
 GAMMAs            1.1265
 SON VEL,M/SEC     1070.9

 MOLE FRACTIONS

 *C              1.321-11
 *CH             1.542-12
 CH2             8.401-13
 CH3             4.152-13
 CH2OH           5.365-13
 CH3O            1.528-13
 CH4             3.294-14
 CH3OH           1.037-14
 *CO             6.3081-2
 *CO2            1.4946-1
 COOH            1.8694-6
 C2H2,acetylene  1.043-16
 CH2CO,ketene    6.263-15
 O(CH)2O         4.041-16
 HO(CO)2OH       3.039-15
 C2O             4.674-13
 C3O2            1.519-16
 *H              1.1950-2
 HCO             5.5114-7
 HCCO            1.325-14
 HO2             3.2370-4
 *H2             1.3213-2
 HCHO,formaldehy 4.4406-9
 HCOOH           7.6623-8
 H2O             2.4959-1
 H2O2            1.4275-5
 *O              4.9495-2
 *OH             9.9714-2
 *O2             3.6315-1
 O3              2.0135-6

  * THERMODYNAMIC PROPERTIES FITTED TO 20000.K









         THERMODYNAMIC EQUILIBRIUM COMBUSTION PROPERTIES AT ASSIGNED

                                     VOLUME

 CASE =                

             REACTANT                       MOLES         ENERGY      TEMP
                                                         KJ/KG-MOL      K
 FUEL        C2H6                         1.0000000    -86248.563    300.000
 OXIDANT     O2                           3.5000000     -2439.995    300.000

 O/F=    6.20770  %FUEL= 13.874046  R,EQ.RATIO= 0.600000  PHI,EQ.RATIO= 0.600000

 THERMODYNAMIC PROPERTIES

 P, BAR            13.726
 T, K             3403.88
 RHO, KG/CU M    1.2541 0
 H, KJ/KG          630.84
 U, KJ/KG         -463.63
 G, KJ/KG        -36124.1
 S, KJ/(KG)(K)    10.7979

 M, (1/n)          25.859
 (dLV/dLP)t      -1.04966
 (dLV/dLT)p        1.9260
 Cp, KJ/(KG)(K)    7.4078
 GAMMAs            1.1253
 SON VEL,M/SEC     1109.8

 MOLE FRACTIONS

 *C              5.006-11
 *CH             6.629-12
 CH2             3.722-12
 CH3             1.840-12
 CH2OH           1.825-12
 CH3O            5.483-13
 CH4             1.528-13
 CH3OH           3.773-14
 *CO             9.0674-2
 *CO2            1.4795-1
 COOH            2.8766-6
 C2H             1.965-16
 C2H2,acetylene  7.602-16
 CH2CO,ketene    3.105-14
 O(CH)2O         1.562-15
 HO(CO)2OH       5.804-15
 C2O             1.995-12
 C3O2            7.693-16
 *H              1.8254-2
 HCO             1.1998-6
 HCCO            6.443-14
 HO2             3.2821-4
 *H2             2.0463-2
 HCHO,formaldehy 1.0679-8
 HCOOH           1.2964-7
 H2O             2.7153-1
 H2O2            1.5986-5
 *O              5.5079-2
 *OH             1.1328-1
 *O2             2.8242-1
 O3              1.7320-6

  * THERMODYNAMIC PROPERTIES FITTED TO 20000.K









         THERMODYNAMIC EQUILIBRIUM COMBUSTION PROPERTIES AT ASSIGNED

                                     VOLUME

 CASE =                

             REACTANT                       MOLES         ENERGY      TEMP
                                                         KJ/KG-MOL      K
 FUEL        C2H6                         1.0000000    -86248.563    300.000
 OXIDANT     O2                           3.5000000     -2439.995    300.000

 O/F=    5.32089  %FUEL= 15.820561  R,EQ.RATIO= 0.700000  PHI,EQ.RATIO= 0.700000

 THERMODYNAMIC PROPERTIES

 P, BAR            14.603
 T, K             3476.73
 RHO, KG/CU M    1.2541 0
 H, KJ/KG          646.48
 U, KJ/KG         -517.98
 G, KJ/KG        -38264.9
 S, KJ/(KG)(K)    11.1920

 M, (1/n)          24.825
 (dLV/dLP)t      -1.05803
 (dLV/dLT)p        2.0535
 Cp, KJ/(KG)(K)    8.3424
 GAMMAs            1.1252
 SON VEL,M/SEC     1144.7

 MOLE FRACTIONS

 *C              1.347-10
 *CH             2.003-11
 CH2             1.179-11
 CH3             5.986-12
 CH2OH           4.739-12
 CH3O            1.480-12
 CH4             5.275-13
 CH3OH           1.056-13
 *CO             1.1833-1
 *CO2            1.4289-1
 COOH            3.8969-6
 *C2             1.118-16
 C2H             9.788-16
 C2H2,acetylene  3.631-15
 CH2CO,ketene    1.088-13
 O(CH)2O         4.419-15
 HO(CO)2OH       9.254-15
 C2O             5.960-12
 C3O2            2.650-15
 *H              2.5023-2
 HCO             2.1566-6
 HCCO            2.168-13
 HO2             3.1239-4
 *H2             2.9074-2
 HCHO,formaldehy 2.1146-8
 HCOOH           1.9285-7
 H2O             2.8943-1
 H2O2            1.6758-5
 *O              5.6618-2
 *OH             1.2129-1
 *O2             2.1701-1
 O3              1.3800-6

  * THERMODYNAMIC PROPERTIES FITTED TO 20000.K









         THERMODYNAMIC EQUILIBRIUM COMBUSTION PROPERTIES AT ASSIGNED

                                     VOLUME

 CASE =                

             REACTANT                       MOLES         ENERGY      TEMP
                                                         KJ/KG-MOL      K
 FUEL        C2H6                         1.0000000    -86248.563    300.000
 OXIDANT     O2                           3.5000000     -2439.995    300.000

 O/F=    4.65578  %FUEL= 17.681036  R,EQ.RATIO= 0.800000  PHI,EQ.RATIO= 0.800000

 THERMODYNAMIC PROPERTIES

 P, BAR            15.417
 T, K             3531.76
 RHO, KG/CU M    1.2541 0
 H, KJ/KG          659.40
 U, KJ/KG         -569.92
 G, KJ/KG        -40161.2
 S, KJ/(KG)(K)    11.5581

 M, (1/n)          23.887
 (dLV/dLP)t      -1.06444
 (dLV/dLT)p        2.1457
 Cp, KJ/(KG)(K)    9.1027
 GAMMAs            1.1256
 SON VEL,M/SEC     1176.3

 MOLE FRACTIONS

 *C              2.914-10
 *CH             4.833-11
 CH2             3.018-11
 CH3             1.602-11
 CH2OH           1.036-11
 CH3O            3.329-12
 CH4             1.513-12
 CH3OH           2.497-13
 *CO             1.4533-1
 *CO2            1.3558-1
 COOH            4.8506-6
 *C2             3.969-16
 C2H             3.608-15
 C2H2,acetylene  1.331-14
 C2H2,vinylidene 1.176-16
 CH2CO,ketene    3.059-13
 O(CH)2O         1.023-14
 HO(CO)2OH       1.306-14
 CH3CO,acetyl    1.357-16
 C2O             1.421-11
 C3O2            7.152-15
 *H              3.1990-2
 HCO             3.4284-6
 HCCO            5.779-13
 HO2             2.8329-4
 *H2             3.9114-2
 HCHO,formaldehy 3.6991-8
 HCOOH           2.6349-7
 H2O             3.0382-1
 H2O2            1.6716-5
 *O              5.5063-2
 *OH             1.2457-1
 *O2             1.6423-1
 O3              1.0327-6

  * THERMODYNAMIC PROPERTIES FITTED TO 20000.K









         THERMODYNAMIC EQUILIBRIUM COMBUSTION PROPERTIES AT ASSIGNED

                                     VOLUME

 CASE =                

             REACTANT                       MOLES         ENERGY      TEMP
                                                         KJ/KG-MOL      K
 FUEL        C2H6                         1.0000000    -86248.563    300.000
 OXIDANT     O2                           3.5000000     -2439.995    300.000

 O/F=    4.13847  %FUEL= 19.461051  R,EQ.RATIO= 0.900000  PHI,EQ.RATIO= 0.900000

 THERMODYNAMIC PROPERTIES

 P, BAR            16.174
 T, K             3572.77
 RHO, KG/CU M    1.2541 0
 H, KJ/KG          670.07
 U, KJ/KG         -619.62
 G, KJ/KG        -41844.0
 S, KJ/(KG)(K)    11.8995

 M, (1/n)          23.033
 (dLV/dLP)t      -1.06883
 (dLV/dLT)p        2.2044
 Cp, KJ/(KG)(K)    9.6881
 GAMMAs            1.1264
 SON VEL,M/SEC     1205.3

 MOLE FRACTIONS

 *C              5.407-10
 *CH             9.970-11
 CH2             6.674-11
 CH3             3.758-11
 CH2OH           2.007-11
 CH3O            6.587-12
 CH4             3.833-12
 CH3OH           5.266-13
 *CO             1.7125-1
 *CO2            1.2688-1
 COOH            5.6754-6
 *C2             1.129-15
 C2H             1.082-14
 C2H2,acetylene  4.085-14
 C2H2,vinylidene 3.857-16
 CH2CO,ketene    7.419-13
 O(CH)2O         2.064-14
 HO(CO)2OH       1.687-14
 CH3CO,acetyl    3.911-16
 C2O             2.897-11
 C3O2            1.635-14
 *H              3.8920-2
 HCO             5.0029-6
 HCCO            1.312-12
 HO2             2.4629-4
 *H2             5.0709-2
 HCHO,formaldehy 5.9418-8
 HCOOH           3.3876-7
 H2O             3.1501-1
 H2O2            1.5991-5
 *O              5.1220-2
 *OH             1.2379-1
 *O2             1.2194-1
 O3              7.2869-7

  * THERMODYNAMIC PROPERTIES FITTED TO 20000.K









         THERMODYNAMIC EQUILIBRIUM COMBUSTION PROPERTIES AT ASSIGNED

                                     VOLUME

 CASE =                

             REACTANT                       MOLES         ENERGY      TEMP
                                                         KJ/KG-MOL      K
 FUEL        C2H6                         1.0000000    -86248.563    300.000
 OXIDANT     O2                           3.5000000     -2439.995    300.000

 O/F=    3.72462  %FUEL= 21.165716  R,EQ.RATIO= 1.000000  PHI,EQ.RATIO= 1.000000

 THERMODYNAMIC PROPERTIES

 P, BAR            16.878
 T, K             3601.72
 RHO, KG/CU M    1.2541 0
 H, KJ/KG          678.59
 U, KJ/KG         -667.22
 G, KJ/KG        -43328.3
 S, KJ/(KG)(K)    12.2183

 M, (1/n)          22.252
 (dLV/dLP)t      -1.07111
 (dLV/dLT)p        2.2293
 Cp, KJ/(KG)(K)   10.0861
 GAMMAs            1.1274
 SON VEL,M/SEC     1231.8

 MOLE FRACTIONS

 *C              8.930-10
 *CH             1.828-10
 CH2             1.325-10
 CH3             8.021-11
 CH2OH           3.561-11
 CH3O            1.186-11
 CH4             8.906-12
 CH3OH           1.022-12
 CH3OOH          1.702-16
 *CO             1.9589-1
 *CO2            1.1736-1
 COOH            6.3231-6
 *C2             2.721-15
 C2H             2.796-14
 C2H2,acetylene  1.106-13
 C2H2,vinylidene 1.093-15
 CH2CO,ketene    1.618-12
 O(CH)2O         3.759-14
 HO(CO)2OH       2.030-14
 CH3CO,acetyl    9.922-16
 C2O             5.264-11
 C3O2            3.313-14
 *H              4.5573-2
 HCO             6.8473-6
 HCCO            2.650-12
 HO2             2.0559-4
 *H2             6.4029-2
 HCHO,formaldehy 8.9692-8
 HCOOH           4.1575-7
 H2O             3.2320-1
 H2O2            1.4718-5
 *O              4.5776-2
 *OH             1.1951-1
 *O2             8.8429-2
 O3              4.8401-7

  * THERMODYNAMIC PROPERTIES FITTED TO 20000.K









         THERMODYNAMIC EQUILIBRIUM COMBUSTION PROPERTIES AT ASSIGNED

                                     VOLUME

 CASE =                

             REACTANT                       MOLES         ENERGY      TEMP
                                                         KJ/KG-MOL      K
 FUEL        C2H6                         1.0000000    -86248.563    300.000
 OXIDANT     O2                           3.5000000     -2439.995    300.000

 O/F=    3.38602  %FUEL= 22.799715  R,EQ.RATIO= 1.100000  PHI,EQ.RATIO= 1.100000

 THERMODYNAMIC PROPERTIES

 P, BAR            17.528
 T, K             3619.50
 RHO, KG/CU M    1.2541 0
 H, KJ/KG          684.82
 U, KJ/KG         -712.84
 G, KJ/KG        -44618.6
 S, KJ/(KG)(K)    12.5165

 M, (1/n)          21.532
 (dLV/dLP)t      -1.07110
 (dLV/dLT)p        2.2188
 Cp, KJ/(KG)(K)   10.2727
 GAMMAs            1.1286
 SON VEL,M/SEC     1255.9

 MOLE FRACTIONS

 *C              1.3406-9
 *CH             3.050-10
 CH2             2.420-10
 CH3             1.596-10
 CH2OH           5.896-11
 CH3O            1.981-11
 CH4             1.946-11
 CH3OH           1.864-12
 CH3OOH          2.689-16
 *CO             2.1909-1
 *CO2            1.0743-1
 COOH            6.7575-6
 *C2             5.760-15
 C2H             6.434-14
 C2H2,acetylene  2.733-13
 C2H2,vinylidene 2.775-15
 CH2CO,ketene    3.265-12
 O(CH)2O         6.326-14
 HO(CO)2OH       2.303-14
 C2H3,vinyl      1.221-16
 CH3CO,acetyl    2.288-15
 C2O             8.737-11
 C3O2            6.130-14
 *H              5.1682-2
 HCO             8.9057-6
 HCCO            4.891-12
 HO2             1.6455-4
 *H2             7.9279-2
 HCHO,formaldehy 1.2912-7
 HCOOH           4.9142-7
 H2O             3.2846-1
 H2O2            1.3037-5
 *O              3.9331-2
 *OH             1.1223-1
 *O2             6.2310-2
 O3              3.0105-7

  * THERMODYNAMIC PROPERTIES FITTED TO 20000.K









         THERMODYNAMIC EQUILIBRIUM COMBUSTION PROPERTIES AT ASSIGNED

                                     VOLUME

 CASE =                

             REACTANT                       MOLES         ENERGY      TEMP
                                                         KJ/KG-MOL      K
 FUEL        C2H6                         1.0000000    -86248.563    300.000
 OXIDANT     O2                           3.5000000     -2439.995    300.000

 O/F=    3.10385  %FUEL= 24.367354  R,EQ.RATIO= 1.200000  PHI,EQ.RATIO= 1.200000

 THERMODYNAMIC PROPERTIES

 P, BAR            18.123
 T, K             3626.29
 RHO, KG/CU M    1.2541 0
 H, KJ/KG          688.45
 U, KJ/KG         -756.61
 G, KJ/KG        -45711.7
 S, KJ/(KG)(K)    12.7955

 M, (1/n)          20.865
 (dLV/dLP)t      -1.06863
 (dLV/dLT)p        2.1707
 Cp, KJ/(KG)(K)   10.2189
 GAMMAs            1.1301
 SON VEL,M/SEC     1277.9

 MOLE FRACTIONS

 *C              1.8506-9
 *CH             4.693-10
 CH2             4.124-10
 CH3             3.009-10
 CH2OH           9.227-11
 CH3O            3.110-11
 CH4             4.071-11
 CH3OH           3.240-12
 CH3OOH          3.939-16
 *CO             2.4076-1
 *CO2            9.7385-2
 COOH            6.9552-6
 *C2             1.093-14
 C2H             1.349-13
 C2H2,acetylene  6.299-13
 C2H2,vinylidene 6.465-15
 CH2CO,ketene    6.203-12
 O(CH)2O         9.988-14
 HO(CO)2OH       2.480-14
 C2H3,vinyl      3.173-16
 CH3CO,acetyl    4.896-15
 C2O             1.345-10
 C3O2            1.056-13
 *H              5.6941-2
 HCO             1.1095-5
 HCCO            8.392-12
 HO2             1.2584-4
 *H2             9.6681-2
 HCHO,formaldehy 1.7897-7
 HCOOH           5.6259-7
 H2O             3.3078-1
 H2O2            1.1092-5
 *O              3.2425-2
 *OH             1.0246-1
 *O2             4.2409-2
 O3              1.7394-7

  * THERMODYNAMIC PROPERTIES FITTED TO 20000.K









         THERMODYNAMIC EQUILIBRIUM COMBUSTION PROPERTIES AT ASSIGNED

                                     VOLUME

 CASE =                

             REACTANT                       MOLES         ENERGY      TEMP
                                                         KJ/KG-MOL      K
 FUEL        C2H6                         1.0000000    -86248.563    300.000
 OXIDANT     O2                           3.5000000     -2439.995    300.000

 O/F=    2.86509  %FUEL= 25.872594  R,EQ.RATIO= 1.300000  PHI,EQ.RATIO= 1.300000

 THERMODYNAMIC PROPERTIES

 P, BAR            18.657
 T, K             3621.78
 RHO, KG/CU M    1.2541 0
 H, KJ/KG          689.04
 U, KJ/KG         -798.64
 G, KJ/KG        -46599.3
 S, KJ/(KG)(K)    13.0566

 M, (1/n)          20.242
 (dLV/dLP)t      -1.06372
 (dLV/dLT)p        2.0854
 Cp, KJ/(KG)(K)    9.9059
 GAMMAs            1.1320
 SON VEL,M/SEC     1297.7

 MOLE FRACTIONS

 *C              2.3615-9
 *CH             6.702-10
 CH2             6.618-10
 CH3             5.430-10
 CH2OH           1.375-10
 CH3O            4.624-11
 CH4             8.247-11
 CH3OH           5.415-12
 CH3OOH          5.382-16
 *CO             2.6084-1
 *CO2            8.7479-2
 COOH            6.9062-6
 *C2             1.879-14
 C2H             2.610-13
 C2H2,acetylene  1.376-12
 C2H2,vinylidene 1.403-14
 CH2CO,ketene    1.124-11
 O(CH)2O         1.494-13
 HO(CO)2OH       2.546-14
 C2H3,vinyl      7.700-16
 CH3CO,acetyl    9.861-15
 C2H4            1.450-16
 CH3CHO,ethanal  1.381-16
 C2O             1.938-10
 C3O2            1.714-13
 *H              6.1006-2
 HCO             1.3300-5
 HCCO            1.353-11
 HO2             9.1474-5
 *H2             1.1645-1
 HCHO,formaldehy 2.4037-7
 HCOOH           6.2599-7
 H2O             3.3011-1
 H2O2            9.0336-6
 *O              2.5553-2
 *OH             9.0748-2
 *O2             2.7696-2
 O3              9.2409-8

  * THERMODYNAMIC PROPERTIES FITTED TO 20000.K









         THERMODYNAMIC EQUILIBRIUM COMBUSTION PROPERTIES AT ASSIGNED

                                     VOLUME

 CASE =                

             REACTANT                       MOLES         ENERGY      TEMP
                                                         KJ/KG-MOL      K
 FUEL        C2H6                         1.0000000    -86248.563    300.000
 OXIDANT     O2                           3.5000000     -2439.995    300.000

 O/F=    2.66044  %FUEL= 27.319090  R,EQ.RATIO= 1.400000  PHI,EQ.RATIO= 1.400000

 THERMODYNAMIC PROPERTIES

 P, BAR            19.126
 T, K             3605.41
 RHO, KG/CU M    1.2541 0
 H, KJ/KG          686.01
 U, KJ/KG         -839.03
 G, KJ/KG        -47269.4
 S, KJ/(KG)(K)    13.3010

 M, (1/n)          19.657
 (dLV/dLP)t      -1.05673
 (dLV/dLT)p        1.9679
 Cp, KJ/(KG)(K)    9.3456
 GAMMAs            1.1345
 SON VEL,M/SEC     1315.3

 MOLE FRACTIONS

 *C              2.7879-9
 *CH             8.907-10
 CH2             1.0043-9
 CH3             9.446-10
 CH2OH           1.959-10
 CH3O            6.536-11
 CH4             1.633-10
 CH3OH           8.760-12
 CH3OOH          6.875-16
 *CO             2.7925-1
 *CO2            7.7909-2
 COOH            6.6176-6
 *C2             2.943-14
 C2H             4.697-13
 C2H2,acetylene  2.879-12
 C2H2,vinylidene 2.861-14
 CH2CO,ketene    1.961-11
 O(CH)2O         2.129-13
 HO(CO)2OH       2.496-14
 C2H3,vinyl      1.765-15
 CH3CO,acetyl    1.887-14
 C2H4            3.808-16
 CH3CHO,ethanal  2.993-16
 CH3COOH         1.271-16
 C2O             2.628-10
 C3O2            2.649-13
 *H              6.3520-2
 HCO             1.5377-5
 HCCO            2.064-11
 HO2             6.2818-5
 *H2             1.3875-1
 HCHO,formaldehy 3.1404-7
 HCOOH           6.7830-7
 H2O             3.2633-1
 H2O2            7.0115-6
 *O              1.9153-2
 *OH             7.7760-2
 *O2             1.7236-2
 O3              4.4628-8

  * THERMODYNAMIC PROPERTIES FITTED TO 20000.K









         THERMODYNAMIC EQUILIBRIUM COMBUSTION PROPERTIES AT ASSIGNED

                                     VOLUME

 CASE =                

             REACTANT                       MOLES         ENERGY      TEMP
                                                         KJ/KG-MOL      K
 FUEL        C2H6                         1.0000000    -86248.563    300.000
 OXIDANT     O2                           3.5000000     -2439.995    300.000

 O/F=    2.48308  %FUEL= 28.710212  R,EQ.RATIO= 1.500000  PHI,EQ.RATIO= 1.500000

 THERMODYNAMIC PROPERTIES

 P, BAR            19.521
 T, K             3576.58
 RHO, KG/CU M    1.2541 0
 H, KJ/KG          678.71
 U, KJ/KG         -877.87
 G, KJ/KG        -47710.0
 S, KJ/(KG)(K)    13.5293

 M, (1/n)          19.104
 (dLV/dLP)t      -1.04842
 (dLV/dLT)p        1.8298
 Cp, KJ/(KG)(K)    8.5949
 GAMMAs            1.1378
 SON VEL,M/SEC     1330.8

 MOLE FRACTIONS

 *C              3.0382-9
 *CH             1.1006-9
 CH2             1.4429-9
 CH3             1.5894-9
 CH2OH           2.675-10
 CH3O            8.796-11
 CH4             3.177-10
 CH3OH           1.376-11
 CH3OOH          8.207-16
 *CO             2.9595-1
 *CO2            6.8844-2
 COOH            6.1160-6
 *C2             4.206-14
 C2H             7.889-13
 C2H2,acetylene  5.806-12
 C2H2,vinylidene 5.514-14
 CH2CO,ketene    3.309-11
 O(CH)2O         2.902-13
 HO(CO)2OH       2.341-14
 C2H3,vinyl      3.843-15
 CH3CO,acetyl    3.448-14
 C2H4            9.706-16
 CH3CHO,ethanal  6.270-16
 CH3COOH         2.207-16
 C2O             3.359-10
 C3O2            3.918-13
 *H              6.4168-2
 HCO             1.7157-5
 HCCO            2.989-11
 HO2             4.0488-5
 *H2             1.6363-1
 HCHO,formaldehy 4.0000-7
 HCOOH           7.1652-7
 H2O             3.1935-1
 H2O2            5.1604-6
 *O              1.3578-2
 *OH             6.4246-2
 *O2             1.0154-2
 O3              1.9368-8

  * THERMODYNAMIC PROPERTIES FITTED TO 20000.K









         THERMODYNAMIC EQUILIBRIUM COMBUSTION PROPERTIES AT ASSIGNED

                                     VOLUME

 CASE =                

             REACTANT                       MOLES         ENERGY      TEMP
                                                         KJ/KG-MOL      K
 FUEL        C2H6                         1.0000000    -86248.563    300.000
 OXIDANT     O2                           3.5000000     -2439.995    300.000

 O/F=    2.32789  %FUEL= 30.049083  R,EQ.RATIO= 1.600000  PHI,EQ.RATIO= 1.600000

 THERMODYNAMIC PROPERTIES

 P, BAR            19.837
 T, K             3534.92
 RHO, KG/CU M    1.2541 0
 H, KJ/KG          666.54
 U, KJ/KG         -915.25
 G, KJ/KG        -47911.8
 S, KJ/(KG)(K)    13.7424

 M, (1/n)          18.581
 (dLV/dLP)t      -1.03977
 (dLV/dLT)p        1.6865
 Cp, KJ/(KG)(K)    7.7474
 GAMMAs            1.1422
 SON VEL,M/SEC     1344.1

 MOLE FRACTIONS

 *C              3.0452-9
 *CH             1.2612-9
 CH2             1.9612-9
 CH3             2.5904-9
 CH2OH           3.498-10
 CH3O            1.126-10
 CH4             6.094-10
 CH3OH           2.103-11
 CH3OOH          9.138-16
 *CO             3.1092-1
 *CO2            6.0427-2
 COOH            5.4479-6
 *C2             5.474-14
 C2H             1.238-12
 C2H2,acetylene  1.133-11
 C2H2,vinylidene 1.006-13
 CH2CO,ketene    5.421-11
 O(CH)2O         3.792-13
 HO(CO)2OH       2.103-14
 C2H3,vinyl      7.977-15
 CH3CO,acetyl    6.036-14
 C2H4            2.413-15
 CH3CHO,ethanal  1.275-15
 CH3COOH         3.715-16
 C2O             4.050-10
 C3O2            5.570-13
 *H              6.2752-2
 HCO             1.8470-5
 HCCO            4.114-11
 HO2             2.4351-5
 *H2             1.9097-1
 HCHO,formaldehy 4.9725-7
 HCOOH           7.3832-7
 H2O             3.0918-1
 H2O2            3.5852-6
 *O              9.0586-3
 *OH             5.1017-2
 *O2             5.6305-3
 O3              7.4796-9

  * THERMODYNAMIC PROPERTIES FITTED TO 20000.K









         THERMODYNAMIC EQUILIBRIUM COMBUSTION PROPERTIES AT ASSIGNED

                                     VOLUME

 CASE =                

             REACTANT                       MOLES         ENERGY      TEMP
                                                         KJ/KG-MOL      K
 FUEL        C2H6                         1.0000000    -86248.563    300.000
 OXIDANT     O2                           3.5000000     -2439.995    300.000

 O/F=    2.19095  %FUEL= 31.338591  R,EQ.RATIO= 1.700000  PHI,EQ.RATIO= 1.700000

 THERMODYNAMIC PROPERTIES

 P, BAR            20.069
 T, K             3480.51
 RHO, KG/CU M    1.2541 0
 H, KJ/KG          649.02
 U, KJ/KG         -951.26
 G, KJ/KG        -47872.9
 S, KJ/(KG)(K)    13.9411

 M, (1/n)          18.084
 (dLV/dLP)t      -1.03170
 (dLV/dLT)p        1.5520
 Cp, KJ/(KG)(K)    6.9026
 GAMMAs            1.1478
 SON VEL,M/SEC     1355.3

 MOLE FRACTIONS

 *C              2.7970-9
 *CH             1.3360-9
 CH2             2.5176-9
 CH3             4.0884-9
 CH2OH           4.380-10
 CH3O            1.371-10
 CH4             1.1541-9
 CH3OH           3.128-11
 CH3OOH          9.471-16
 *CO             3.2415-1
 *CO2            5.2764-2
 COOH            4.6756-6
 *C2             6.469-14
 C2H             1.811-12
 C2H2,acetylene  2.141-11
 C2H2,vinylidene 1.739-13
 CH2CO,ketene    8.642-11
 O(CH)2O         4.754-13
 HO(CO)2OH       1.812-14
 C2H3,vinyl      1.579-14
 CH3CO,acetyl    1.014-13
 C2H4            5.866-15
 CH3CHO,ethanal  2.522-15
 CH3COOH         6.081-16
 C2O             4.606-10
 C3O2            7.636-13
 *H              5.9278-2
 HCO             1.9177-5
 HCCO            5.384-11
 HO2             1.3611-5
 *H2             2.2038-1
 HCHO,formaldehy 6.0352-7
 HCOOH           7.4252-7
 H2O             2.9595-1
 H2O2            2.3435-6
 *O              5.6649-3
 *OH             3.8840-2
 *O2             2.9284-3
 O3              2.5540-9

  * THERMODYNAMIC PROPERTIES FITTED TO 20000.K









         THERMODYNAMIC EQUILIBRIUM COMBUSTION PROPERTIES AT ASSIGNED

                                     VOLUME

 CASE =                

             REACTANT                       MOLES         ENERGY      TEMP
                                                         KJ/KG-MOL      K
 FUEL        C2H6                         1.0000000    -86248.563    300.000
 OXIDANT     O2                           3.5000000     -2439.995    300.000

 O/F=    2.06923  %FUEL= 32.581416  R,EQ.RATIO= 1.800000  PHI,EQ.RATIO= 1.800000

 THERMODYNAMIC PROPERTIES

 P, BAR            20.214
 T, K             3414.05
 RHO, KG/CU M    1.2541 0
 H, KJ/KG          625.91
 U, KJ/KG         -985.96
 G, KJ/KG        -47600.2
 S, KJ/(KG)(K)    14.1258

 M, (1/n)          17.611
 (dLV/dLP)t      -1.02472
 (dLV/dLT)p        1.4352
 Cp, KJ/(KG)(K)    6.1328
 GAMMAs            1.1545
 SON VEL,M/SEC     1364.2

 MOLE FRACTIONS

 *C              2.3481-9
 *CH             1.3052-9
 CH2             3.0466-9
 CH3             6.2438-9
 CH2OH           5.246-10
 CH3O            1.585-10
 CH4             2.1583-9
 CH3OH           4.526-11
 CH3OOH          9.127-16
 *CO             3.3570-1
 *CO2            4.5916-2
 COOH            3.8682-6
 *C2             6.930-14
 C2H             2.471-12
 C2H2,acetylene  3.923-11
 C2H2,vinylidene 2.844-13
 CH2CO,ketene    1.342-10
 O(CH)2O         5.728-13
 HO(CO)2OH       1.502-14
 C2H3,vinyl      2.980-14
 CH3CO,acetyl    1.633-13
 C2H4            1.395-14
 CH3CHO,ethanal  4.856-15
 CH3COOH         9.692-16
 C2O             4.941-10
 C3O2            1.012-12
 *H              5.4004-2
 HCO             1.9198-5
 HCCO            6.704-11
 HO2             7.0572-6
 *H2             2.5126-1
 HCHO,formaldehy 7.1532-7
 HCOOH           7.2949-7
 H2O             2.8003-1
 H2O2            1.4391-6
 *O              3.3141-3
 *OH             2.8311-2
 *O2             1.4265-3
 O3              7.693-10

  * THERMODYNAMIC PROPERTIES FITTED TO 20000.K









         THERMODYNAMIC EQUILIBRIUM COMBUSTION PROPERTIES AT ASSIGNED

                                     VOLUME

 CASE =                

             REACTANT                       MOLES         ENERGY      TEMP
                                                         KJ/KG-MOL      K
 FUEL        C2H6                         1.0000000    -86248.563    300.000
 OXIDANT     O2                           3.5000000     -2439.995    300.000

 O/F=    1.96033  %FUEL= 33.780049  R,EQ.RATIO= 1.900000  PHI,EQ.RATIO= 1.900000

 THERMODYNAMIC PROPERTIES

 P, BAR            20.274
 T, K             3336.77
 RHO, KG/CU M    1.2541 0
 H, KJ/KG          597.20
 U, KJ/KG        -1019.42
 G, KJ/KG        -47109.2
 S, KJ/(KG)(K)    14.2971

 M, (1/n)          17.161
 (dLV/dLP)t      -1.01899
 (dLV/dLT)p        1.3385
 Cp, KJ/(KG)(K)    5.4704
 GAMMAs            1.1624
 SON VEL,M/SEC     1370.8

 MOLE FRACTIONS

 *C              1.7993-9
 *CH             1.1747-9
 CH2             3.4723-9
 CH3             9.2223-9
 CH2OH           6.010-10
 CH3O            1.741-10
 CH4             3.9872-9
 CH3OH           6.377-11
 CH3OOH          8.181-16
 *CO             3.4567-1
 *CO2            3.9895-2
 COOH            3.0883-6
 *C2             6.724-14
 C2H             3.141-12
 C2H2,acetylene  6.971-11
 C2H2,vinylidene 4.399-13
 CH2CO,ketene    2.031-10
 O(CH)2O         6.643-13
 HO(CO)2OH       1.201-14
 C2H3,vinyl      5.360-14
 CH3CO,acetyl    2.527-13
 C2H4            3.246-14
 CH3CHO,ethanal  9.117-15
 CH3COOH         1.507-15
 C2O             5.004-10
 C3O2            1.300-12
 *H              4.7403-2
 HCO             1.8536-5
 HCCO            7.946-11
 HO2             3.3937-6
 *H2             2.8286-1
 HCHO,formaldehy 8.2839-7
 HCOOH           7.0108-7
 H2O             2.6194-1
 H2O2            8.3015-7
 *O              1.8124-3
 *OH             1.9750-2
 *O2             6.5086-4
 O3              2.045-10

  * THERMODYNAMIC PROPERTIES FITTED TO 20000.K









         THERMODYNAMIC EQUILIBRIUM COMBUSTION PROPERTIES AT ASSIGNED

                                     VOLUME

 CASE =                

             REACTANT                       MOLES         ENERGY      TEMP
                                                         KJ/KG-MOL      K
 FUEL        C2H6                         1.0000000    -86248.563    300.000
 OXIDANT     O2                           3.5000000     -2439.995    300.000

 O/F=    1.86231  %FUEL= 34.936806  R,EQ.RATIO= 2.000000  PHI,EQ.RATIO= 2.000000

 THERMODYNAMIC PROPERTIES

 P, BAR            20.251
 T, K             3250.13
 RHO, KG/CU M    1.2541 0
 H, KJ/KG          563.10
 U, KJ/KG        -1051.72
 G, KJ/KG        -46419.9
 S, KJ/(KG)(K)    14.4558

 M, (1/n)          16.735
 (dLV/dLP)t      -1.01439
 (dLV/dLT)p        1.2605
 Cp, KJ/(KG)(K)    4.9168
 GAMMAs            1.1712
 SON VEL,M/SEC     1375.2

 MOLE FRACTIONS

 *C              1.2579-9
 *CH             9.737-10
 CH2             3.7274-9
 CH3             1.3181-8
 CH2OH           6.592-10
 CH3O            1.818-10
 CH4             7.2871-9
 CH3OH           8.759-11
 CH3OOH          6.831-16
 *CO             3.5419-1
 *CO2            3.4663-2
 COOH            2.3825-6
 *C2             5.909-14
 C2H             3.722-12
 C2H2,acetylene  1.203-10
 C2H2,vinylidene 6.442-13
 CH2CO,ketene    3.003-10
 O(CH)2O         7.431-13
 HO(CO)2OH       9.304-15
 C2H3,vinyl      9.200-14
 CH3CO,acetyl    3.764-13
 C2H4            7.405-14
 CH3CHO,ethanal  1.672-14
 CH3COOH         2.293-15
 C2H5            1.010-16
 C2O             4.790-10
 C3O2            1.624-12
 *H              4.0070-2
 HCO             1.7273-5
 HCCO            8.978-11
 HO2             1.5137-6
 *H2             3.1435-1
 HCHO,formaldehy 9.3832-7
 HCOOH           6.6021-7
 H2O             2.4232-1
 H2O2            4.5005-7
 *O              9.2616-4
 *OH             1.3184-2
 *O2             2.7816-4
 O3              4.805-11

  * THERMODYNAMIC PROPERTIES FITTED TO 20000.K



