
 *******************************************************************************

         NASA-GLENN CHEMICAL EQUILIBRIUM PROGRAM CEA2, MAY 21, 2004
                   BY  BONNIE MCBRIDE AND SANFORD GORDON
      REFS: NASA RP-1311, PART I, 1994 AND NASA RP-1311, PART II, 1996

 *******************************************************************************



 problem    phi,eq.ratio=3.7,3.8,3.9,4,
       uv   rho,kg/m**3=1.2541,  t,k=3800
 react
   fuel=C2H6 moles=1 t,k=300
   oxid=O2 moles=3.5 t,k=300
 output
      trace=1e-16 siunits short
 end




         THERMODYNAMIC EQUILIBRIUM COMBUSTION PROPERTIES AT ASSIGNED

                                     VOLUME

 CASE =                

             REACTANT                       MOLES         ENERGY      TEMP
                                                         KJ/KG-MOL      K
 FUEL        C2H6                         1.0000000    -86248.563    300.000
 OXIDANT     O2                           3.5000000     -2439.995    300.000

 O/F=    1.00665  %FUEL= 49.834189  R,EQ.RATIO= 3.700000  PHI,EQ.RATIO= 3.700000

 THERMODYNAMIC PROPERTIES

 P, BAR            12.732
 T, K             1529.24
 RHO, KG/CU M    1.2541 0
 H, KJ/KG         -452.47
 U, KJ/KG        -1467.67
 G, KJ/KG        -24086.6
 S, KJ/(KG)(K)    15.4548

 M, (1/n)          12.525
 MW, MOL WT        12.313
 (dLV/dLP)t      -1.01459
 (dLV/dLT)p        1.1229
 Cp, KJ/(KG)(K)    3.4956
 GAMMAs            1.2901
 SON VEL,M/SEC     1144.4

 MOLE FRACTIONS

 *CH             5.922-16
 CH2             1.694-11
 CH3             1.8740-6
 CH2OH           2.332-11
 CH3O            1.099-12
 CH4             1.0131-2
 CH3OH           8.1087-9
 *CO             3.8009-1
 *CO2            9.6559-4
 COOH            4.370-11
 C2H             1.517-13
 C2H2,acetylene  7.4847-6
 C2H2,vinylidene 2.455-11
 CH2CO,ketene    5.6323-7
 O(CH)2O         2.273-13
 C2H3,vinyl      4.769-10
 CH3CO,acetyl    1.396-10
 C2H4            1.2317-5
 C2H4O,ethylen-o 5.401-14
 CH3CHO,ethanal  5.9971-9
 CH3COOH         8.058-12
 C2H5            1.2878-9
 C2H6            6.5942-7
 C2H5OH          4.571-12
 CH3OCH3         1.419-14
 C2O             4.189-13
 C3H3,1-propynl  1.264-14
 C3H3,2-propynl  5.108-10
 C3H4,allene     3.5307-9
 C3H4,propyne    9.9246-9
 C3H4,cyclo-     3.162-12
 C3H5,allyl      1.428-10
 C3H6,propylene  1.0558-8
 C3H6,cyclo-     1.954-11
 C3H6O,acetone   2.821-12
 C3H6O,propanal  9.290-13
 C3H7,n-propyl   2.264-13
 C3H7,i-propyl   2.313-13
 C3H8            1.220-10
 C3H8O,1propanol 7.736-16
 C3H8O,2propanol 9.107-16
 C3O2            5.196-11
 C4H2,butadiyne  3.634-11
 C4H4,1,3-cyclo- 8.618-16
 C4H6,butadiene  5.143-11
 C4H6,1butyne    1.977-12
 C4H6,2butyne    2.400-12
 C4H6,cyclo-     5.675-14
 C4H8,1-butene   1.819-12
 C4H8,cis2-buten 8.867-13
 C4H8,tr2-butene 9.964-13
 C4H8,isobutene  1.205-12
 C4H8,cyclo-     5.487-16
 C4H9,n-butyl    1.107-16
 C4H10,n-butane  2.288-14
 C4H10,isobutane 8.510-15
 C5H6,1,3cyclo-  9.046-13
 C5H8,cyclo-     5.461-15
 C5H10,1-pentene 2.659-16
 C6H2            1.895-16
 C6H5,phenyl     4.802-16
 C6H6            1.129-11
 C6H5OH,phenol   6.241-16
 C7H7,benzyl     1.974-16
 C7H8            1.413-14
 C8H8,styrene    1.160-16
 *H              5.3007-6
 HCO             3.6840-8
 HCCO            1.129-11
 *H2             5.8784-1
 HCHO,formaldehy 1.2837-6
 HCOOH           9.8711-9
 H2O             4.0474-3
 *O              8.826-15
 *OH             1.3485-9
 C(gr)           1.6899-2

  * THERMODYNAMIC PROPERTIES FITTED TO 20000.K









         THERMODYNAMIC EQUILIBRIUM COMBUSTION PROPERTIES AT ASSIGNED

                                     VOLUME

 CASE =                

             REACTANT                       MOLES         ENERGY      TEMP
                                                         KJ/KG-MOL      K
 FUEL        C2H6                         1.0000000    -86248.563    300.000
 OXIDANT     O2                           3.5000000     -2439.995    300.000

 O/F=    0.98016  %FUEL= 50.500877  R,EQ.RATIO= 3.800000  PHI,EQ.RATIO= 3.800000

 THERMODYNAMIC PROPERTIES

 P, BAR            12.468
 T, K             1497.02
 RHO, KG/CU M    1.2541 0
 H, KJ/KG         -492.12
 U, KJ/KG        -1486.29
 G, KJ/KG        -23594.6
 S, KJ/(KG)(K)    15.4323

 M, (1/n)          12.520
 MW, MOL WT        12.185
 (dLV/dLP)t      -1.01705
 (dLV/dLT)p        1.1479
 Cp, KJ/(KG)(K)    3.6871
 GAMMAs            1.2825
 SON VEL,M/SEC     1129.2

 MOLE FRACTIONS

 *CH             2.174-16
 CH2             8.824-12
 CH3             1.4744-6
 CH2OH           1.920-11
 CH3O            8.491-13
 CH4             1.1596-2
 CH3OH           9.1426-9
 *CO             3.6972-1
 *CO2            1.1950-3
 COOH            3.973-11
 C2H             5.868-14
 C2H2,acetylene  5.1178-6
 C2H2,vinylidene 1.235-11
 CH2CO,ketene    4.8980-7
 O(CH)2O         2.043-13
 C2H3,vinyl      2.911-10
 CH3CO,acetyl    1.131-10
 C2H4            1.1396-5
 C2H4O,ethylen-o 4.712-14
 CH3CHO,ethanal  6.3545-9
 CH3COOH         1.047-11
 C2H5            1.0630-9
 C2H6            7.6550-7
 C2H5OH          5.399-12
 CH3OCH3         1.543-14
 C2O             2.053-13
 C3H3,1-propynl  6.004-15
 C3H3,2-propynl  2.926-10
 C3H4,allene     2.5698-9
 C3H4,propyne    7.3081-9
 C3H4,cyclo-     1.993-12
 C3H5,allyl      1.081-10
 C3H6,propylene  1.0260-8
 C3H6,cyclo-     1.791-11
 C3H6O,acetone   3.248-12
 C3H6O,propanal  1.004-12
 C3H7,n-propyl   1.911-13
 C3H7,i-propyl   1.993-13
 C3H8            1.454-10
 C3H8O,1propanol 9.415-16
 C3H8O,2propanol 1.133-15
 C3O2            3.850-11
 C4H2,butadiyne  1.698-11
 C4H4,1,3-cyclo- 4.523-16
 C4H6,butadiene  4.221-11
 C4H6,1butyne    1.493-12
 C4H6,2butyne    1.888-12
 C4H6,cyclo-     4.364-14
 C4H8,1-butene   1.817-12
 C4H8,cis2-buten 9.019-13
 C4H8,tr2-butene 1.014-12
 C4H8,isobutene  1.238-12
 C4H8,cyclo-     5.230-16
 C4H10,n-butane  2.795-14
 C4H10,isobutane 1.055-14
 C5H6,1,3cyclo-  7.204-13
 C5H8,cyclo-     5.145-15
 C5H10,1-pentene 2.733-16
 C6H5,phenyl     2.729-16
 C6H6            9.850-12
 C6H5OH,phenol   5.780-16
 C7H7,benzyl     1.367-16
 C7H8            1.297-14
 *H              3.6360-6
 HCO             2.7576-8
 HCCO            6.694-12
 *H2             5.8584-1
 HCHO,formaldehy 1.2409-6
 HCOOH           1.1750-8
 H2O             4.8769-3
 *O              4.593-15
 *OH             1.0087-9
 C(gr)           2.6753-2

  * THERMODYNAMIC PROPERTIES FITTED TO 20000.K









         THERMODYNAMIC EQUILIBRIUM COMBUSTION PROPERTIES AT ASSIGNED

                                     VOLUME

 CASE =                

             REACTANT                       MOLES         ENERGY      TEMP
                                                         KJ/KG-MOL      K
 FUEL        C2H6                         1.0000000    -86248.563    300.000
 OXIDANT     O2                           3.5000000     -2439.995    300.000

 O/F=    0.95503  %FUEL= 51.150078  R,EQ.RATIO= 3.900000  PHI,EQ.RATIO= 3.900000

 THERMODYNAMIC PROPERTIES

 P, BAR            12.224
 T, K             1467.75
 RHO, KG/CU M    1.2541 0
 H, KJ/KG         -529.71
 U, KJ/KG        -1504.41
 G, KJ/KG        -23146.3
 S, KJ/(KG)(K)    15.4090

 M, (1/n)          12.520
 MW, MOL WT        12.067
 (dLV/dLP)t      -1.01973
 (dLV/dLT)p        1.1759
 Cp, KJ/(KG)(K)    3.9050
 GAMMAs            1.2746
 SON VEL,M/SEC     1114.6

 MOLE FRACTIONS

 CH2             4.756-12
 CH3             1.1739-6
 CH2OH           1.594-11
 CH3O            6.644-13
 CH4             1.3168-2
 CH3OH           1.0227-8
 *CO             3.5971-1
 *CO2            1.4597-3
 COOH            3.625-11
 C2H             2.386-14
 C2H2,acetylene  3.5684-6
 C2H2,vinylidene 6.437-12
 CH2CO,ketene    4.2854-7
 O(CH)2O         1.844-13
 C2H3,vinyl      1.822-10
 CH3CO,acetyl    9.251-11
 C2H4            1.0577-5
 C2H4O,ethylen-o 4.136-14
 CH3CHO,ethanal  6.7026-9
 CH3COOH         1.338-11
 C2H5            8.855-10
 C2H6            8.8072-7
 C2H5OH          6.311-12
 CH3OCH3         1.667-14
 C2O             1.044-13
 C3H3,1-propynl  2.965-15
 C3H3,2-propynl  1.725-10
 C3H4,allene     1.9006-9
 C3H4,propyne    5.4648-9
 C3H4,cyclo-     1.286-12
 C3H5,allyl      8.291-11
 C3H6,propylene  9.9747-9
 C3H6,cyclo-     1.647-11
 C3H6O,acetone   3.705-12
 C3H6O,propanal  1.080-12
 C3H7,n-propyl   1.626-13
 C3H7,i-propyl   1.728-13
 C3H8            1.715-10
 C3H8O,1propanol 1.132-15
 C3H8O,2propanol 1.390-15
 C3O2            2.895-11
 C4H2,butadiyne  8.258-12
 C4H4,1,3-cyclo- 2.454-16
 C4H6,butadiene  3.498-11
 C4H6,1butyne    1.143-12
 C4H6,2butyne    1.503-12
 C4H6,cyclo-     3.399-14
 C4H8,1-butene   1.812-12
 C4H8,cis2-buten 9.154-13
 C4H8,tr2-butene 1.030-12
 C4H8,isobutene  1.268-12
 C4H8,cyclo-     4.993-16
 C4H10,n-butane  3.374-14
 C4H10,isobutane 1.290-14
 C5H6,1,3cyclo-  5.802-13
 C5H8,cyclo-     4.858-15
 C5H10,1-pentene 2.801-16
 C6H5,phenyl     1.596-16
 C6H6            8.650-12
 C6H5OH,phenol   5.367-16
 C7H8            1.195-14
 *H              2.5443-6
 HCO             2.0935-8
 HCCO            4.078-12
 *H2             5.8365-1
 HCHO,formaldehy 1.2002-6
 HCOOH           1.3836-8
 H2O             5.8106-3
 *O              2.473-15
 *OH             7.654-10
 C(gr)           3.6179-2

  * THERMODYNAMIC PROPERTIES FITTED TO 20000.K









         THERMODYNAMIC EQUILIBRIUM COMBUSTION PROPERTIES AT ASSIGNED

                                     VOLUME

 CASE =                

             REACTANT                       MOLES         ENERGY      TEMP
                                                         KJ/KG-MOL      K
 FUEL        C2H6                         1.0000000    -86248.563    300.000
 OXIDANT     O2                           3.5000000     -2439.995    300.000

 O/F=    0.93116  %FUEL= 51.782471  R,EQ.RATIO= 4.000000  PHI,EQ.RATIO= 4.000000

 THERMODYNAMIC PROPERTIES

 P, BAR            11.998
 T, K             1441.21
 RHO, KG/CU M    1.2541 0
 H, KJ/KG         -565.35
 U, KJ/KG        -1522.07
 G, KJ/KG        -22738.7
 S, KJ/(KG)(K)    15.3853

 M, (1/n)          12.525
 MW, MOL WT        11.959
 (dLV/dLP)t      -1.02261
 (dLV/dLT)p        1.2067
 Cp, KJ/(KG)(K)    4.1483
 GAMMAs            1.2665
 SON VEL,M/SEC     1100.8

 MOLE FRACTIONS

 CH2             2.656-12
 CH3             9.4633-7
 CH2OH           1.336-11
 CH3O            5.266-13
 CH4             1.4832-2
 CH3OH           1.1346-8
 *CO             3.5004-1
 *CO2            1.7586-3
 COOH            3.317-11
 C2H             1.022-14
 C2H2,acetylene  2.5393-6
 C2H2,vinylidene 3.482-12
 CH2CO,ketene    3.7728-7
 O(CH)2O         1.670-13
 C2H3,vinyl      1.171-10
 CH3CO,acetyl    7.645-11
 C2H4            9.8516-6
 C2H4O,ethylen-o 3.652-14
 CH3CHO,ethanal  7.0357-9
 CH3COOH         1.683-11
 C2H5            7.449-10
 C2H6            1.0040-6
 C2H5OH          7.296-12
 CH3OCH3         1.790-14
 C2O             5.514-14
 C3H3,1-propynl  1.524-15
 C3H3,2-propynl  1.048-10
 C3H4,allene     1.4294-9
 C3H4,propyne    4.1524-9
 C3H4,cyclo-     8.504-13
 C3H5,allyl      6.456-11
 C3H6,propylene  9.7035-9
 C3H6,cyclo-     1.521-11
 C3H6O,acetone   4.186-12
 C3H6O,propanal  1.153-12
 C3H7,n-propyl   1.394-13
 C3H7,i-propyl   1.509-13
 C3H8            2.001-10
 C3H8O,1propanol 1.344-15
 C3H8O,2propanol 1.682-15
 C3O2            2.208-11
 C4H2,butadiyne  4.185-12
 C4H4,1,3-cyclo- 1.379-16
 C4H6,butadiene  2.928-11
 C4H6,1butyne    8.882-13
 C4H6,2butyne    1.210-12
 C4H6,cyclo-     2.685-14
 C4H8,1-butene   1.805-12
 C4H8,cis2-buten 9.272-13
 C4H8,tr2-butene 1.043-12
 C4H8,isobutene  1.296-12
 C4H8,cyclo-     4.774-16
 C4H10,n-butane  4.024-14
 C4H10,isobutane 1.559-14
 C5H6,1,3cyclo-  4.727-13
 C5H8,cyclo-     4.598-15
 C5H10,1-pentene 2.863-16
 C6H6            7.646-12
 C6H5OH,phenol   4.996-16
 C7H8            1.105-14
 *H              1.8175-6
 HCO             1.6126-8
 HCCO            2.553-12
 *H2             5.8129-1
 HCHO,formaldehy 1.1613-6
 HCOOH           1.6106-8
 H2O             6.8420-3
 *O              1.379-15
 *OH             5.894-10
 C(gr)           4.5226-2

  * THERMODYNAMIC PROPERTIES FITTED TO 20000.K



