
 *******************************************************************************

         NASA-GLENN CHEMICAL EQUILIBRIUM PROGRAM CEA2, MAY 21, 2004
                   BY  BONNIE MCBRIDE AND SANFORD GORDON
      REFS: NASA RP-1311, PART I, 1994 AND NASA RP-1311, PART II, 1996

 *******************************************************************************



 problem    phi,eq.ratio=2.1,2.2,2.3,2.4,2.5,2.6,2.7,2.8,2.9,3,3.1,3.2,3.3,3.4,3.
 5,3.6,
       uv   rho,kg/m**3=1.2085,  t,k=3800
 react
   fuel=C3H8 moles=1 t,k=300
   oxid=O2 moles=5 t,k=300
   oxid=N2 moles=18.8095 t,k=300
 output
      trace=1e-16 siunits short
 end




         THERMODYNAMIC EQUILIBRIUM COMBUSTION PROPERTIES AT ASSIGNED

                                     VOLUME

 CASE =                

             REACTANT                       MOLES         ENERGY      TEMP
                                                         KJ/KG-MOL      K
 FUEL        C3H8                         1.0000000   -107037.874    300.000
 OXIDANT     O2                           5.0000000     -2439.995    300.000
 OXIDANT     N2                          18.8095000     -2440.472    300.000

 O/F=    7.41799  %FUEL= 11.879317  R,EQ.RATIO= 2.100000  PHI,EQ.RATIO= 2.100000

 THERMODYNAMIC PROPERTIES

 P, BAR            8.4217
 T, K             1949.57
 RHO, KG/CU M    1.2085 0
 H, KJ/KG          333.97
 U, KJ/KG         -362.90
 G, KJ/KG        -19504.0
 S, KJ/(KG)(K)    10.1755

 M, (1/n)          23.261
 (dLV/dLP)t      -1.00005
 (dLV/dLT)p        1.0012
 Cp, KJ/(KG)(K)    1.6397
 GAMMAs            1.2795
 SON VEL,M/SEC      944.3

 MOLE FRACTIONS

 *C              4.336-16
 *CH             3.296-15
 CH2             1.107-12
 CH3             7.799-10
 CH2OH           3.357-12
 CH3O            3.059-13
 CH4             3.9899-8
 CH3OH           1.987-11
 *CN             3.002-11
 *CO             1.6694-1
 *CO2            2.1054-2
 COOH            8.2238-9
 C2H             1.830-16
 C2H2,acetylene  1.182-11
 C2H2,vinylidene 8.252-16
 CH2CO,ketene    4.351-11
 O(CH)2O         6.971-15
 C2H3,vinyl      9.189-16
 CH3CN           1.124-13
 CH3CO,acetyl    8.784-15
 C2H4            1.466-13
 CH3CHO,ethanal  1.004-14
 CH3COOH         9.866-16
 C2H6            1.269-16
 OCCN            4.266-14
 C2N2            8.411-14
 C2O             6.495-14
 C3O2            2.564-14
 *H              1.5836-4
 HCN             1.4947-6
 HCO             8.8211-8
 HCCO            1.017-13
 HNC             6.8440-8
 HNCO            2.3793-7
 HNO             1.818-10
 HNO2            4.437-13
 HO2             2.817-12
 *H2             1.6121-1
 HCHO,formaldehy 9.4130-8
 HCOOH           5.0555-8
 H2O             8.9347-2
 H2O2            1.523-11
 *N              1.103-10
 NCO             1.029-10
 *NH             9.053-10
 NH2             3.0688-8
 NH3             9.0161-6
 NH2OH           1.440-12
 *NO             4.5543-7
 NO2             2.037-13
 *N2             5.6127-1
 NCN             4.151-16
 N2H2            1.618-12
 N2H4            2.364-15
 N2O             6.320-11
 N3              1.182-15
 N3H             1.528-14
 *O              5.7666-9
 *OH             9.0240-6
 *O2             1.3855-9

  * THERMODYNAMIC PROPERTIES FITTED TO 20000.K









         THERMODYNAMIC EQUILIBRIUM COMBUSTION PROPERTIES AT ASSIGNED

                                     VOLUME

 CASE =                

             REACTANT                       MOLES         ENERGY      TEMP
                                                         KJ/KG-MOL      K
 FUEL        C3H8                         1.0000000   -107037.874    300.000
 OXIDANT     O2                           5.0000000     -2439.995    300.000
 OXIDANT     N2                          18.8095000     -2440.472    300.000

 O/F=    7.08081  %FUEL= 12.374996  R,EQ.RATIO= 2.200000  PHI,EQ.RATIO= 2.200000

 THERMODYNAMIC PROPERTIES

 P, BAR            8.2349
 T, K             1877.96
 RHO, KG/CU M    1.2085 0
 H, KJ/KG          306.90
 U, KJ/KG         -374.51
 G, KJ/KG        -18898.3
 S, KJ/(KG)(K)    10.2266

 M, (1/n)          22.914
 (dLV/dLP)t      -1.00004
 (dLV/dLT)p        1.0008
 Cp, KJ/(KG)(K)    1.6433
 GAMMAs            1.2839
 SON VEL,M/SEC      935.3

 MOLE FRACTIONS

 *C              1.396-16
 *CH             1.473-15
 CH2             8.427-13
 CH3             1.0995-9
 CH2OH           3.162-12
 CH3O            2.621-13
 CH4             9.8291-8
 CH3OH           3.022-11
 *CN             1.844-11
 *CO             1.7379-1
 *CO2            1.9125-2
 COOH            5.0905-9
 C2H             1.495-16
 C2H2,acetylene  2.228-11
 C2H2,vinylidene 1.021-15
 CH2CO,ketene    7.191-11
 O(CH)2O         7.536-15
 C2H3,vinyl      1.550-15
 CH3CN           3.178-13
 CH3CO,acetyl    1.370-14
 C2H4            4.595-13
 CH3CHO,ethanal  2.381-14
 CH3COOH         1.931-15
 C2H6            5.940-16
 OCCN            3.442-14
 C2N2            1.142-13
 C2O             4.429-14
 C3O2            3.308-14
 *H              9.8448-5
 HCN             1.9441-6
 HCO             6.6663-8
 HCCO            9.457-14
 HNC             7.6879-8
 HNCO            2.5395-7
 HNO             6.738-11
 HNO2            1.130-13
 HO2             6.020-13
 *H2             1.7690-1
 HCHO,formaldehy 1.0589-7
 HCOOH           4.7260-8
 H2O             8.0257-2
 H2O2            4.788-12
 *N              3.572-11
 NCO             5.816-11
 *NH             4.052-10
 NH2             2.1378-8
 NH3             1.1435-5
 NH2OH           8.177-13
 *NO             1.6663-7
 NO2             3.854-14
 *N2             5.4981-1
 NCN             2.108-16
 N2H2            1.033-12
 N2H4            2.158-15
 N2O             2.280-11
 N3              4.004-16
 N3H             7.536-15
 *O              1.4670-9
 *OH             3.9902-6
 *O2             2.912-10

  * THERMODYNAMIC PROPERTIES FITTED TO 20000.K









         THERMODYNAMIC EQUILIBRIUM COMBUSTION PROPERTIES AT ASSIGNED

                                     VOLUME

 CASE =                

             REACTANT                       MOLES         ENERGY      TEMP
                                                         KJ/KG-MOL      K
 FUEL        C3H8                         1.0000000   -107037.874    300.000
 OXIDANT     O2                           5.0000000     -2439.995    300.000
 OXIDANT     N2                          18.8095000     -2440.472    300.000

 O/F=    6.77295  %FUEL= 12.865129  R,EQ.RATIO= 2.300000  PHI,EQ.RATIO= 2.300000

 THERMODYNAMIC PROPERTIES

 P, BAR            8.0437
 T, K             1807.72
 RHO, KG/CU M    1.2085 0
 H, KJ/KG          279.60
 U, KJ/KG         -385.99
 G, KJ/KG        -18293.2
 S, KJ/(KG)(K)    10.2742

 M, (1/n)          22.582
 (dLV/dLP)t      -1.00003
 (dLV/dLT)p        1.0005
 Cp, KJ/(KG)(K)    1.6476
 GAMMAs            1.2881
 SON VEL,M/SEC      925.9

 MOLE FRACTIONS

 *CH             6.119-16
 CH2             6.102-13
 CH3             1.5168-9
 CH2OH           2.884-12
 CH3O            2.165-13
 CH4             2.4322-7
 CH3OH           4.541-11
 *CN             1.083-11
 *CO             1.8024-1
 *CO2            1.7406-2
 COOH            3.0639-9
 C2H             1.156-16
 C2H2,acetylene  4.142-11
 C2H2,vinylidene 1.213-15
 CH2CO,ketene    1.177-10
 O(CH)2O         7.981-15
 C2H3,vinyl      2.541-15
 CH3CN           9.011-13
 CH3CO,acetyl    2.094-14
 C2H4            1.440-12
 CH3CHO,ethanal  5.624-14
 CH3COOH         3.779-15
 C2H5            1.460-16
 C2H6            2.805-15
 OCCN            2.683-14
 C2N2            1.527-13
 C2O             2.886-14
 C3O2            4.214-14
 *H              5.9105-5
 HCN             2.5046-6
 HCO             4.8895-8
 HCCO            8.491-14
 HNC             8.4801-8
 HNCO            2.6881-7
 HNO             2.374-11
 HNO2            2.708-14
 HO2             1.198-13
 *H2             1.9209-1
 HCHO,formaldehy 1.1745-7
 HCOOH           4.3707-8
 H2O             7.1395-2
 H2O2            1.422-12
 *N              1.085-11
 NCO             3.168-11
 *NH             1.719-10
 NH2             1.4370-8
 NH3             1.4378-5
 NH2OH           4.456-13
 *NO             5.8299-8
 NO2             6.799-15
 *N2             5.3879-1
 NCN             1.013-16
 N2H2            6.348-13
 N2H4            1.906-15
 N2O             7.872-12
 N3              1.279-16
 N3H             3.553-15
 *O              3.493-10
 *OH             1.6905-6
 *O2             5.735-11

  * THERMODYNAMIC PROPERTIES FITTED TO 20000.K









         THERMODYNAMIC EQUILIBRIUM COMBUSTION PROPERTIES AT ASSIGNED

                                     VOLUME

 CASE =                

             REACTANT                       MOLES         ENERGY      TEMP
                                                         KJ/KG-MOL      K
 FUEL        C3H8                         1.0000000   -107037.874    300.000
 OXIDANT     O2                           5.0000000     -2439.995    300.000
 OXIDANT     N2                          18.8095000     -2440.472    300.000

 O/F=    6.49074  %FUEL= 13.349810  R,EQ.RATIO= 2.400000  PHI,EQ.RATIO= 2.400000

 THERMODYNAMIC PROPERTIES

 P, BAR            7.8481
 T, K             1738.79
 RHO, KG/CU M    1.2085 0
 H, KJ/KG          252.06
 U, KJ/KG         -397.35
 G, KJ/KG        -17689.2
 S, KJ/(KG)(K)    10.3182

 M, (1/n)          22.262
 (dLV/dLP)t      -1.00003
 (dLV/dLT)p        1.0004
 Cp, KJ/(KG)(K)    1.6522
 GAMMAs            1.2923
 SON VEL,M/SEC      916.1

 MOLE FRACTIONS

 *CH             2.362-16
 CH2             4.214-13
 CH3             2.0610-9
 CH2OH           2.552-12
 CH3O            1.727-13
 CH4             6.1078-7
 CH3OH           6.781-11
 *CN             6.072-12
 *CO             1.8635-1
 *CO2            1.5837-2
 COOH            1.7868-9
 C2H2,acetylene  7.667-11
 C2H2,vinylidene 1.396-15
 CH2CO,ketene    1.923-10
 O(CH)2O         8.306-15
 C2H3,vinyl      4.088-15
 CH3CN           2.596-12
 CH3CO,acetyl    3.164-14
 C2H4            4.577-12
 CH3CHO,ethanal  1.339-13
 CH3COOH         7.450-15
 C2H5            4.024-16
 C2H6            1.359-14
 OCCN            2.025-14
 C2N2            2.025-13
 C2O             1.800-14
 C3O2            5.328-14
 *H              3.4204-5
 HCN             3.2117-6
 HCO             3.4795-8
 HCCO            7.387-14
 HNC             9.2233-8
 HNCO            2.8265-7
 HNO             7.897-12
 HNO2            6.049-15
 HO2             2.190-14
 *H2             2.0675-1
 HCHO,formaldehy 1.2877-7
 HCOOH           3.9969-8
 H2O             6.2797-2
 H2O2            3.951-13
 *N              3.072-12
 NCO             1.659-11
 *NH             6.888-11
 NH2             9.3144-9
 NH3             1.7979-5
 NH2OH           2.323-13
 *NO             1.9356-8
 NO2             1.104-15
 *N2             5.2821-1
 N2H2            3.754-13
 N2H4            1.631-15
 N2O             2.583-12
 N3H             1.597-15
 *O              7.708-11
 *OH             6.8209-7
 *O2             1.045-11

  * THERMODYNAMIC PROPERTIES FITTED TO 20000.K









         THERMODYNAMIC EQUILIBRIUM COMBUSTION PROPERTIES AT ASSIGNED

                                     VOLUME

 CASE =                

             REACTANT                       MOLES         ENERGY      TEMP
                                                         KJ/KG-MOL      K
 FUEL        C3H8                         1.0000000   -107037.874    300.000
 OXIDANT     O2                           5.0000000     -2439.995    300.000
 OXIDANT     N2                          18.8095000     -2440.472    300.000

 O/F=    6.23111  %FUEL= 13.829129  R,EQ.RATIO= 2.500000  PHI,EQ.RATIO= 2.500000

 THERMODYNAMIC PROPERTIES

 P, BAR            7.6483
 T, K             1671.13
 RHO, KG/CU M    1.2085 0
 H, KJ/KG          224.30
 U, KJ/KG         -408.58
 G, KJ/KG        -17086.6
 S, KJ/(KG)(K)    10.3588

 M, (1/n)          21.955
 (dLV/dLP)t      -1.00004
 (dLV/dLT)p        1.0003
 Cp, KJ/(KG)(K)    1.6569
 GAMMAs            1.2965
 SON VEL,M/SEC      905.8

 MOLE FRACTIONS

 CH2             2.781-13
 CH3             2.7751-9
 CH2OH           2.193-12
 CH3O            1.332-13
 CH4             1.5725-6
 CH3OH           1.011-10
 *CN             3.252-12
 *CO             1.9218-1
 *CO2            1.4372-2
 COOH            1.0051-9
 C2H2,acetylene  1.428-10
 C2H2,vinylidene 1.569-15
 CH2CO,ketene    3.159-10
 O(CH)2O         8.515-15
 C2H3,vinyl      6.520-15
 CH3CN           7.705-12
 CH3CO,acetyl    4.759-14
 C2H4            1.497-11
 CH3CHO,ethanal  3.243-13
 CH3COOH         1.490-14
 C2H5            1.125-15
 C2H6            6.885-14
 OCCN            1.482-14
 C2N2            2.686-13
 C2O             1.075-14
 C3H4,propyne    1.007-16
 C3O2            6.724-14
 *H              1.9030-5
 HCN             4.1193-6
 HCO             2.3999-8
 HCCO            6.246-14
 HNC             9.9306-8
 HNCO            2.9565-7
 HNO             2.460-12
 HNO2            1.242-15
 HO2             3.632-15
 *H2             2.2088-1
 HCHO,formaldehy 1.3982-7
 HCOOH           3.6096-8
 H2O             5.4488-2
 H2O2            1.016-13
 *N              8.053-13
 NCO             8.323-12
 *NH             2.594-11
 NH2             5.8136-9
 NH3             2.2422-5
 NH2OH           1.154-13
 *NO             6.0461-9
 NO2             1.625-16
 *N2             5.1803-1
 N2H2            2.132-13
 N2H4            1.356-15
 N2O             7.988-13
 N3H             6.816-16
 *O              1.559-11
 *OH             2.6023-7
 *O2             1.736-12

  * THERMODYNAMIC PROPERTIES FITTED TO 20000.K









         THERMODYNAMIC EQUILIBRIUM COMBUSTION PROPERTIES AT ASSIGNED

                                     VOLUME

 CASE =                

             REACTANT                       MOLES         ENERGY      TEMP
                                                         KJ/KG-MOL      K
 FUEL        C3H8                         1.0000000   -107037.874    300.000
 OXIDANT     O2                           5.0000000     -2439.995    300.000
 OXIDANT     N2                          18.8095000     -2440.472    300.000

 O/F=    5.99146  %FUEL= 14.303174  R,EQ.RATIO= 2.600000  PHI,EQ.RATIO= 2.600000

 THERMODYNAMIC PROPERTIES

 P, BAR            7.4443
 T, K             1604.65
 RHO, KG/CU M    1.2085 0
 H, KJ/KG          196.31
 U, KJ/KG         -419.68
 G, KJ/KG        -16485.3
 S, KJ/(KG)(K)    10.3958

 M, (1/n)          21.659
 (dLV/dLP)t      -1.00005
 (dLV/dLT)p        1.0004
 Cp, KJ/(KG)(K)    1.6615
 GAMMAs            1.3007
 SON VEL,M/SEC      895.1

 MOLE FRACTIONS

 CH2             1.756-13
 CH3             3.7254-9
 CH2OH           1.832-12
 CH3O            9.925-14
 CH4             4.1940-6
 CH3OH           1.512-10
 *CN             1.663-12
 *CO             1.9779-1
 *CO2            1.2967-2
 COOH            5.423-10
 C2H2,acetylene  2.707-10
 C2H2,vinylidene 1.735-15
 CH2CO,ketene    5.256-10
 O(CH)2O         8.614-15
 C2H3,vinyl      1.042-14
 CH3CN           2.390-11
 CH3CO,acetyl    7.178-14
 C2H4            5.118-11
 CH3CHO,ethanal  8.085-13
 CH3COOH         3.044-14
 C2H5            3.236-15
 C2H6            3.713-13
 C2H5OH          1.081-16
 OCCN            1.054-14
 C2N2            3.592-13
 C2O             6.150-15
 C3H4,allene     1.564-16
 C3H4,propyne    4.285-16
 C3O2            8.518-14
 *H              1.0147-5
 HCN             5.3123-6
 HCO             1.6017-8
 HCCO            5.149-14
 HNC             1.0628-7
 HNCO            3.0794-7
 HNO             7.108-13
 HNO2            2.312-16
 HO2             5.371-16
 *H2             2.3447-1
 HCHO,formaldehy 1.5059-7
 HCOOH           3.2123-8
 H2O             4.6489-2
 H2O2            2.385-14
 *N              1.939-13
 NCO             3.987-12
 *NH             9.132-12
 NH2             3.4863-9
 NH3             2.7956-5
 NH2OH           5.429-14
 *NO             1.7591-9
 *N2             5.0824-1
 N2H2            1.161-13
 N2H4            1.094-15
 N2O             2.304-13
 N3H             2.750-16
 *O              2.856-12
 *OH             9.3083-8
 *O2             2.585-13

  * THERMODYNAMIC PROPERTIES FITTED TO 20000.K









         THERMODYNAMIC EQUILIBRIUM COMBUSTION PROPERTIES AT ASSIGNED

                                     VOLUME

 CASE =                

             REACTANT                       MOLES         ENERGY      TEMP
                                                         KJ/KG-MOL      K
 FUEL        C3H8                         1.0000000   -107037.874    300.000
 OXIDANT     O2                           5.0000000     -2439.995    300.000
 OXIDANT     N2                          18.8095000     -2440.472    300.000

 O/F=    5.76955  %FUEL= 14.772031  R,EQ.RATIO= 2.700000  PHI,EQ.RATIO= 2.700000

 THERMODYNAMIC PROPERTIES

 P, BAR            7.2362
 T, K             1539.30
 RHO, KG/CU M    1.2085 0
 H, KJ/KG          168.11
 U, KJ/KG         -430.67
 G, KJ/KG        -15885.7
 S, KJ/(KG)(K)    10.4293

 M, (1/n)          21.374
 (dLV/dLP)t      -1.00009
 (dLV/dLT)p        1.0006
 Cp, KJ/(KG)(K)    1.6662
 GAMMAs            1.3049
 SON VEL,M/SEC      883.9

 MOLE FRACTIONS

 CH2             1.062-13
 CH3             5.0199-9
 CH2OH           1.487-12
 CH3O            7.144-14
 CH4             1.1723-5
 CH3OH           2.275-10
 *CN             8.111-13
 *CO             2.0321-1
 *CO2            1.1582-2
 COOH            2.786-10
 C2H2,acetylene  5.289-10
 C2H2,vinylidene 1.904-15
 CH2CO,ketene    8.929-10
 O(CH)2O         8.611-15
 C2H3,vinyl      1.688-14
 CH3CN           7.877-11
 CH3CO,acetyl    1.095-13
 C2H4            1.860-10
 CH3CHO,ethanal  2.098-12
 CH3COOH         6.396-14
 C2H5            9.744-15
 C2H6            2.177-12
 C2H5OH          3.624-16
 OCCN            7.305-15
 C2N2            4.896-13
 C2O             3.374-15
 C3H3,2-propynl  2.255-16
 C3H4,allene     7.016-16
 C3H4,propyne    1.965-15
 C3H6,propylene  4.502-16
 C3O2            1.090-13
 *H              5.1654-6
 HCN             6.9306-6
 HCO             1.0322-8
 HCCO            4.152-14
 HNC             1.1363-7
 HNCO            3.1970-7
 HNO             1.883-13
 *H2             2.4751-1
 HCHO,formaldehy 1.6107-7
 HCOOH           2.8067-8
 H2O             3.8825-2
 H2O2            5.026-15
 *N              4.248-14
 NCO             1.816-12
 *NH             2.986-12
 NH2             2.0029-9
 NH3             3.4921-5
 NH2OH           2.399-14
 *NO             4.711-10
 *N2             4.9881-1
 N2H2            6.032-14
 N2H4            8.575-16
 N2O             6.128-14
 N3H             1.044-16
 *O              4.664-13
 *OH             3.0891-8
 *O2             3.381-14

  * THERMODYNAMIC PROPERTIES FITTED TO 20000.K









         THERMODYNAMIC EQUILIBRIUM COMBUSTION PROPERTIES AT ASSIGNED

                                     VOLUME

 CASE =                

             REACTANT                       MOLES         ENERGY      TEMP
                                                         KJ/KG-MOL      K
 FUEL        C3H8                         1.0000000   -107037.874    300.000
 OXIDANT     O2                           5.0000000     -2439.995    300.000
 OXIDANT     N2                          18.8095000     -2440.472    300.000

 O/F=    5.56349  %FUEL= 15.235787  R,EQ.RATIO= 2.800000  PHI,EQ.RATIO= 2.800000

 THERMODYNAMIC PROPERTIES

 P, BAR            7.0242
 T, K             1475.08
 RHO, KG/CU M    1.2085 0
 H, KJ/KG          139.70
 U, KJ/KG         -441.53
 G, KJ/KG        -15288.3
 S, KJ/(KG)(K)    10.4591

 M, (1/n)          21.101
 (dLV/dLP)t      -1.00019
 (dLV/dLT)p        1.0016
 Cp, KJ/(KG)(K)    1.6726
 GAMMAs            1.3091
 SON VEL,M/SEC      872.3

 MOLE FRACTIONS

 CH2             6.177-14
 CH3             6.8453-9
 CH2OH           1.172-12
 CH3O            4.961-14
 CH4             3.4785-5
 CH3OH           3.457-10
 *CN             3.782-13
 *CO             2.0850-1
 *CO2            1.0179-2
 COOH            1.350-10
 C2H2,acetylene  1.0828-9
 C2H2,vinylidene 2.103-15
 CH2CO,ketene    1.5647-9
 O(CH)2O         8.515-15
 C2H3,vinyl      2.817-14
 CH3CN           2.814-10
 CH3CO,acetyl    1.704-13
 C2H4            7.336-10
 CH3CHO,ethanal  5.737-12
 CH3COOH         1.390-13
 C2H5            3.130-14
 C2H6            1.422-11
 C2H5OH          1.294-15
 OCCN            4.951-15
 C2N2            6.898-13
 C2O             1.780-15
 C3H3,2-propynl  6.756-16
 C3H4,allene     3.484-15
 C3H4,propyne    9.988-15
 C3H6,propylene  4.192-15
 C3O2            1.421-13
 *H              2.5004-6
 HCN             9.2193-6
 HCO             6.4079-9
 HCCO            3.292-14
 HNC             1.2216-7
 HNCO            3.3107-7
 HNO             4.508-14
 *H2             2.5996-1
 HCHO,formaldehy 1.7127-7
 HCOOH           2.3941-8
 H2O             3.1526-2
 H2O2            9.314-16
 *N              8.389-15
 NCO             7.826-13
 *NH             9.003-13
 NH2             1.0990-9
 NH3             4.3783-5
 NH2OH           9.863-15
 *NO             1.145-10
 *N2             4.8974-1
 N2H2            2.983-14
 N2H4            6.523-16
 N2O             1.483-14
 *O              6.679-14
 *OH             9.3932-9
 *O2             3.794-15

  * THERMODYNAMIC PROPERTIES FITTED TO 20000.K









         THERMODYNAMIC EQUILIBRIUM COMBUSTION PROPERTIES AT ASSIGNED

                                     VOLUME

 CASE =                

             REACTANT                       MOLES         ENERGY      TEMP
                                                         KJ/KG-MOL      K
 FUEL        C3H8                         1.0000000   -107037.874    300.000
 OXIDANT     O2                           5.0000000     -2439.995    300.000
 OXIDANT     N2                          18.8095000     -2440.472    300.000

 O/F=    5.37165  %FUEL= 15.694523  R,EQ.RATIO= 2.900000  PHI,EQ.RATIO= 2.900000

 THERMODYNAMIC PROPERTIES

 P, BAR            6.8090
 T, K             1412.18
 RHO, KG/CU M    1.2085 0
 H, KJ/KG          111.15
 U, KJ/KG         -452.28
 G, KJ/KG        -14695.8
 S, KJ/(KG)(K)    10.4851

 M, (1/n)          20.840
 (dLV/dLP)t      -1.00051
 (dLV/dLT)p        1.0047
 Cp, KJ/(KG)(K)    1.6872
 GAMMAs            1.3127
 SON VEL,M/SEC      860.0

 MOLE FRACTIONS

 CH2             3.480-14
 CH3             9.5439-9
 CH2OH           8.971-13
 CH3O            3.321-14
 CH4             1.1096-4
 CH3OH           5.316-10
 *CN             1.698-13
 *CO             2.1367-1
 *CO2            8.7230-3
 COOH            6.103-11
 C2H2,acetylene  2.3716-9
 C2H2,vinylidene 2.381-15
 CH2CO,ketene    2.8602-9
 O(CH)2O         8.337-15
 C2H3,vinyl      4.940-14
 CH3CN           1.1149-9
 CH3CO,acetyl    2.736-13
 C2H4            3.2129-9
 CH3CHO,ethanal  1.675-11
 CH3COOH         3.137-13
 C2H5            1.097-13
 C2H6            1.059-10
 C2H5OH          4.986-15
 OCCN            3.311-15
 C2N2            1.025-12
 C2O             9.095-16
 C3H3,2-propynl  2.244-15
 C3H4,allene     1.978-14
 C3H4,propyne    5.815-14
 C3H5,allyl      4.714-16
 C3H6,propylene  4.627-14
 C3H6O,acetone   1.508-16
 C3H8            3.018-16
 C3O2            1.907-13
 *H              1.1487-6
 HCN             1.2633-5
 HCO             3.8274-9
 HCCO            2.590-14
 HNC             1.3335-7
 HNCO            3.4216-7
 HNO             9.633-15
 *H2             2.7173-1
 HCHO,formaldehy 1.8112-7
 HCOOH           1.9760-8
 H2O             2.4650-2
 H2O2            1.483-16
 *N              1.487-15
 NCO             3.185-13
 *NH             2.496-13
 NH2             5.750-10
 NH3             5.5142-5
 NH2OH           3.729-15
 *NO             2.496-11
 *N2             4.8105-1
 N2H2            1.402-14
 N2H4            4.814-16
 N2O             3.222-15
 *O              8.265-15
 *OH             2.5848-9
 *O2             3.563-16

  * THERMODYNAMIC PROPERTIES FITTED TO 20000.K









         THERMODYNAMIC EQUILIBRIUM COMBUSTION PROPERTIES AT ASSIGNED

                                     VOLUME

 CASE =                

             REACTANT                       MOLES         ENERGY      TEMP
                                                         KJ/KG-MOL      K
 FUEL        C3H8                         1.0000000   -107037.874    300.000
 OXIDANT     O2                           5.0000000     -2439.995    300.000
 OXIDANT     N2                          18.8095000     -2440.472    300.000

 O/F=    5.19259  %FUEL= 16.148320  R,EQ.RATIO= 3.000000  PHI,EQ.RATIO= 3.000000

 THERMODYNAMIC PROPERTIES

 P, BAR            6.5945
 T, K             1351.67
 RHO, KG/CU M    1.2085 0
 H, KJ/KG          82.764
 U, KJ/KG         -462.91
 G, KJ/KG        -14119.6
 S, KJ/(KG)(K)    10.5073

 M, (1/n)          20.595
 (dLV/dLP)t      -1.00157
 (dLV/dLT)p        1.0159
 Cp, KJ/(KG)(K)    1.7363
 GAMMAs            1.3130
 SON VEL,M/SEC      846.4

 MOLE FRACTIONS

 CH2             1.942-14
 CH3             1.3749-8
 CH2OH           6.689-13
 CH3O            2.156-14
 CH4             3.8036-4
 CH3OH           8.222-10
 *CN             7.524-14
 *CO             2.1867-1
 *CO2            7.1972-3
 COOH            2.564-11
 C2H2,acetylene  5.6682-9
 C2H2,vinylidene 2.842-15
 CH2CO,ketene    5.4937-9
 O(CH)2O         8.088-15
 C2H3,vinyl      9.310-14
 CH3CN           4.9561-9
 CH3CO,acetyl    4.575-13
 C2H4            1.5787-8
 C2H4O,ethylen-o 1.442-16
 CH3CHO,ethanal  5.229-11
 CH3COOH         7.273-13
 C2H5            4.252-13
 C2H6            9.039-10
 C2H5OH          2.070-14
 OCCN            2.230-15
 C2N2            1.646-12
 C2O             4.613-16
 C3H3,2-propynl  8.509-15
 C3H4,allene     1.314-13
 C3H4,propyne    3.963-13
 C3H5,allyl      3.491-15
 C3H6,propylene  6.135-13
 C3H6,cyclo-     7.958-16
 C3H6O,acetone   1.370-15
 C3H6O,propanal  3.079-16
 C3H8            6.603-15
 C3O2            2.666-13
 C4H6,butadiene  1.342-16
 *H              5.0603-7
 HCN             1.8027-5
 HCO             2.2150-9
 HCCO            2.059-14
 HNC             1.4985-7
 HNCO            3.5284-7
 HNO             1.847-15
 *H2             2.8247-1
 HCHO,formaldehy 1.9037-7
 HCOOH           1.5593-8
 H2O             1.8342-2
 *N              2.420-16
 NCO             1.240-13
 *NH             6.470-14
 NH2             2.893-10
 NH3             6.9540-5
 NH2OH           1.294-15
 *NO             4.898-12
 *N2             4.7284-1
 N2H2            6.322-15
 N2H4            3.461-16
 N2O             6.321-16
 *O              8.952-16
 *OH             6.450-10

  * THERMODYNAMIC PROPERTIES FITTED TO 20000.K









         THERMODYNAMIC EQUILIBRIUM COMBUSTION PROPERTIES AT ASSIGNED

                                     VOLUME

 CASE =                

             REACTANT                       MOLES         ENERGY      TEMP
                                                         KJ/KG-MOL      K
 FUEL        C3H8                         1.0000000   -107037.874    300.000
 OXIDANT     O2                           5.0000000     -2439.995    300.000
 OXIDANT     N2                          18.8095000     -2440.472    300.000

 O/F=    5.02509  %FUEL= 16.597258  R,EQ.RATIO= 3.100000  PHI,EQ.RATIO= 3.100000

 THERMODYNAMIC PROPERTIES

 P, BAR            6.3945
 T, K             1297.39
 RHO, KG/CU M    1.2085 0
 H, KJ/KG          55.694
 U, KJ/KG         -473.43
 G, KJ/KG        -13599.9
 S, KJ/(KG)(K)    10.5254

 M, (1/n)          20.387
 (dLV/dLP)t      -1.00483
 (dLV/dLT)p        1.0522
 Cp, KJ/(KG)(K)    1.9025
 GAMMAs            1.3029
 SON VEL,M/SEC      830.3

 MOLE FRACTIONS

 CH2             1.144-14
 CH3             2.0356-8
 CH2OH           4.961-13
 CH3O            1.399-14
 CH4             1.3095-3
 CH3OH           1.2393-9
 *CN             3.565-14
 *CO             2.2319-1
 *CO2            5.6771-3
 COOH            1.043-11
 C2H2,acetylene  1.4488-8
 C2H2,vinylidene 3.684-15
 CH2CO,ketene    1.0808-8
 O(CH)2O         7.792-15
 C2H3,vinyl      1.879-13
 CH3CN           2.3168-8
 CH3CO,acetyl    7.840-13
 C2H4            8.0993-8
 C2H4O,ethylen-o 2.959-16
 CH3CHO,ethanal  1.642-10
 CH3COOH         1.631-12
 C2H5            1.724-12
 C2H6            7.8953-9
 C2H5OH          8.533-14
 CH3OCH3         1.330-16
 OCCN            1.590-15
 C2N2            2.882-12
 C2O             2.490-16
 C3H3,2-propynl  3.568-14
 C3H4,allene     9.491-13
 C3H4,propyne    2.935-12
 C3H4,cyclo-     2.570-16
 C3H5,allyl      2.797-14
 C3H6,propylene  8.646-12
 C3H6,cyclo-     9.879-15
 C3H6O,acetone   1.272-14
 C3H6O,propanal  2.494-15
 C3H8            1.508-13
 C3O2            3.874-13
 C4H2,butadiyne  2.672-16
 C4H6,butadiene  3.124-15
 C4H6,2butyne    1.015-16
 C4H8,1-butene   1.546-16
 C4H8,isobutene  1.295-16
 C6H6            1.020-16
 *H              2.2664-7
 HCN             2.6668-5
 HCO             1.2916-9
 HCCO            1.718-14
 HNC             1.7555-7
 HNCO            3.6218-7
 HNO             3.500-16
 *H2             2.9119-1
 HCHO,formaldehy 1.9814-7
 HCOOH           1.1715-8
 H2O             1.2987-2
 NCO             4.934-14
 *NH             1.726-14
 NH2             1.470-10
 NH3             8.6313-5
 NH2OH           4.350-16
 *NO             9.524-13
 *N2             4.6554-1
 N2H2            2.893-15
 N2H4            2.478-16
 N2O             1.231-16
 *OH             1.578-10

  * THERMODYNAMIC PROPERTIES FITTED TO 20000.K









         THERMODYNAMIC EQUILIBRIUM COMBUSTION PROPERTIES AT ASSIGNED

                                     VOLUME

 CASE =                

             REACTANT                       MOLES         ENERGY      TEMP
                                                         KJ/KG-MOL      K
 FUEL        C3H8                         1.0000000   -107037.874    300.000
 OXIDANT     O2                           5.0000000     -2439.995    300.000
 OXIDANT     N2                          18.8095000     -2440.472    300.000

 O/F=    4.86806  %FUEL= 17.041414  R,EQ.RATIO= 3.200000  PHI,EQ.RATIO= 3.200000

 THERMODYNAMIC PROPERTIES

 P, BAR            6.2363
 T, K             1256.53
 RHO, KG/CU M    1.2085 0
 H, KJ/KG          32.196
 U, KJ/KG         -483.84
 G, KJ/KG        -13211.6
 S, KJ/(KG)(K)    10.5400

 M, (1/n)          20.246
 (dLV/dLP)t      -1.01092
 (dLV/dLT)p        1.1230
 Cp, KJ/(KG)(K)    2.2449
 GAMMAs            1.2817
 SON VEL,M/SEC      813.3

 MOLE FRACTIONS

 CH2             7.851-15
 CH3             2.9379-8
 CH2OH           3.844-13
 CH3O            9.739-15
 CH4             3.7309-3
 CH3OH           1.6993-9
 *CN             2.069-14
 *CO             2.2656-1
 *CO2            4.3988-3
 COOH            4.708-12
 C2H2,acetylene  3.4731-8
 C2H2,vinylidene 5.094-15
 CH2CO,ketene    1.9699-8
 O(CH)2O         7.493-15
 C2H3,vinyl      3.706-13
 CH3CN           9.0249-8
 CH3CO,acetyl    1.274-12
 C2H4            3.3873-7
 C2H4O,ethylen-o 5.541-16
 CH3CHO,ethanal  4.337-10
 CH3COOH         3.087-12
 C2H5            5.939-12
 C2H6            5.0434-8
 C2H5OH          2.789-13
 CH3OCH3         3.750-16
 OCCN            1.284-15
 C2N2            5.130-12
 C2O             1.605-16
 C3H3,2-propynl  1.352-13
 C3H4,allene     5.569-12
 C3H4,propyne    1.757-11
 C3H4,cyclo-     1.167-15
 C3H5,allyl      1.779-13
 C3H6,propylene  8.650-11
 C3H6,cyclo-     8.923-14
 C3H6O,acetone   8.533-14
 C3H6O,propanal  1.498-14
 C3H7,n-propyl   2.375-16
 C3H7,i-propyl   2.968-16
 C3H8            2.215-12
 C3O2            5.565-13
 C4H2,butadiyne  1.502-15
 C4H6,butadiene  4.991-14
 C4H6,1butyne    8.212-16
 C4H6,2butyne    1.497-15
 C4H8,1-butene   3.559-15
 C4H8,cis2-buten 2.086-15
 C4H8,tr2-butene 2.359-15
 C4H8,isobutene  3.134-15
 C5H6,1,3cyclo-  4.161-16
 C6H6            8.383-15
 *H              1.1791-7
 HCN             3.8781-5
 HCO             8.301-10
 HCCO            1.569-14
 HNC             2.1134-7
 HNCO            3.6819-7
 *H2             2.9618-1
 HCHO,formaldehy 2.0284-7
 HCOOH           8.6684-9
 H2O             9.1524-3
 NCO             2.339-14
 *NH             5.900-15
 NH2             8.427-11
 NH3             1.0163-4
 NH2OH           1.673-16
 *NO             2.377-13
 *N2             4.5984-1
 N2H2            1.526-15
 N2H4            1.864-16
 *OH             4.724-11

  * THERMODYNAMIC PROPERTIES FITTED TO 20000.K









         THERMODYNAMIC EQUILIBRIUM COMBUSTION PROPERTIES AT ASSIGNED

                                     VOLUME

 CASE =                

             REACTANT                       MOLES         ENERGY      TEMP
                                                         KJ/KG-MOL      K
 FUEL        C3H8                         1.0000000   -107037.874    300.000
 OXIDANT     O2                           5.0000000     -2439.995    300.000
 OXIDANT     N2                          18.8095000     -2440.472    300.000

 O/F=    4.72054  %FUEL= 17.480865  R,EQ.RATIO= 3.300000  PHI,EQ.RATIO= 3.300000

 THERMODYNAMIC PROPERTIES

 P, BAR            6.1409
 T, K             1233.13
 RHO, KG/CU M    1.2085 0
 H, KJ/KG          14.011
 U, KJ/KG         -494.13
 G, KJ/KG        -12997.7
 S, KJ/(KG)(K)    10.5518

 M, (1/n)          20.177
 MW, MOL WT        20.136
 (dLV/dLP)t      -1.01630
 (dLV/dLT)p        1.1989
 Cp, KJ/(KG)(K)    2.7346
 GAMMAs            1.2505
 SON VEL,M/SEC      797.1

 MOLE FRACTIONS

 CH2             6.097-15
 CH3             3.5656-8
 CH2OH           3.259-13
 CH3O            7.743-15
 CH4             6.8143-3
 CH3OH           2.0293-9
 *CN             1.454-14
 *CO             2.2680-1
 *CO2            3.8029-3
 COOH            2.936-12
 C2H2,acetylene  5.6068-8
 C2H2,vinylidene 5.901-15
 CH2CO,ketene    2.7391-8
 O(CH)2O         7.203-15
 C2H3,vinyl      5.311-13
 CH3CN           1.9482-7
 CH3CO,acetyl    1.651-12
 C2H4            7.6279-7
 C2H4O,ethylen-o 7.815-16
 CH3CHO,ethanal  7.523-10
 CH3COOH         4.454-12
 C2H5            1.188-11
 C2H6            1.4624-7
 C2H5OH          5.488-13
 CH3OCH3         6.750-16
 OCCN            1.095-15
 C2N2            6.929-12
 C2O             1.196-16
 C3H3,2-propynl  2.811-13
 C3H4,allene     1.505-11
 C3H4,propyne    4.807-11
 C3H4,cyclo-     2.702-15
 C3H5,allyl      5.041-13
 C3H6,propylene  3.216-10
 C3H6,cyclo-     3.120-13
 C3H6O,acetone   2.533-13
 C3H6O,propanal  4.162-14
 C3H7,n-propyl   7.624-16
 C3H7,i-propyl   9.729-16
 C3H8            1.035-11
 C3O2            6.681-13
 C4H2,butadiyne  3.880-15
 C4H6,butadiene  2.408-13
 C4H6,1butyne    3.616-15
 C4H6,2butyne    6.883-15
 C4H6,cyclo-     1.279-16
 C4H8,1-butene   2.135-14
 C4H8,cis2-buten 1.275-14
 C4H8,tr2-butene 1.444-14
 C4H8,isobutene  1.937-14
 C4H10,n-butane  7.298-16
 C4H10,isobutane 3.187-16
 C5H6,1,3cyclo-  3.014-15
 C6H6            1.039-13
 *H              7.9326-8
 HCN             4.7369-5
 HCO             6.302-10
 HCCO            1.441-14
 HNC             2.3036-7
 HNCO            3.6825-7
 *H2             2.9799-1
 HCHO,formaldehy 2.0361-7
 HCOOH           7.2742-9
 H2O             7.4977-3
 NCO             1.479-14
 *NH             3.079-15
 NH2             5.997-11
 NH3             1.1144-4
 *NO             1.044-13
 *N2             4.5492-1
 N2H2            1.032-15
 N2H4            1.558-16
 *OH             2.314-11
 C(gr)           2.0172-3

  * THERMODYNAMIC PROPERTIES FITTED TO 20000.K









         THERMODYNAMIC EQUILIBRIUM COMBUSTION PROPERTIES AT ASSIGNED

                                     VOLUME

 CASE =                

             REACTANT                       MOLES         ENERGY      TEMP
                                                         KJ/KG-MOL      K
 FUEL        C3H8                         1.0000000   -107037.874    300.000
 OXIDANT     O2                           5.0000000     -2439.995    300.000
 OXIDANT     N2                          18.8095000     -2440.472    300.000

 O/F=    4.58170  %FUEL= 17.915685  R,EQ.RATIO= 3.400000  PHI,EQ.RATIO= 3.400000

 THERMODYNAMIC PROPERTIES

 P, BAR            6.0979
 T, K             1221.93
 RHO, KG/CU M    1.2085 0
 H, KJ/KG         0.26741
 U, KJ/KG         -504.32
 G, KJ/KG        -12906.5
 S, KJ/(KG)(K)    10.5627

 M, (1/n)          20.135
 MW, MOL WT        19.938
 (dLV/dLP)t      -1.01799
 (dLV/dLT)p        1.2216
 Cp, KJ/(KG)(K)    2.8817
 GAMMAs            1.2436
 SON VEL,M/SEC      792.1

 MOLE FRACTIONS

 CH2             4.358-15
 CH3             3.1953-8
 CH2OH           2.988-13
 CH3O            6.880-15
 CH4             7.5158-3
 CH3OH           2.2168-9
 *CN             9.761-15
 *CO             2.2148-1
 *CO2            4.2188-3
 COOH            2.790-12
 C2H2,acetylene  4.6277-8
 C2H2,vinylidene 4.136-15
 CH2CO,ketene    2.5647-8
 O(CH)2O         6.867-15
 C2H3,vinyl      4.160-13
 CH3CN           1.8648-7
 CH3CO,acetyl    1.502-12
 C2H4            7.5111-7
 C2H4O,ethylen-o 7.463-16
 CH3CHO,ethanal  7.955-10
 CH3COOH         5.252-12
 C2H5            1.111-11
 C2H6            1.6517-7
 C2H5OH          6.253-13
 CH3OCH3         7.360-16
 OCCN            7.945-16
 C2N2            5.160-12
 C3H3,2-propynl  2.130-13
 C3H4,allene     1.306-11
 C3H4,propyne    4.195-11
 C3H4,cyclo-     2.172-15
 C3H5,allyl      4.506-13
 C3H6,propylene  3.306-10
 C3H6,cyclo-     3.112-13
 C3H6O,acetone   2.846-13
 C3H6O,propanal  4.527-14
 C3H7,n-propyl   7.337-16
 C3H7,i-propyl   9.460-16
 C3H8            1.206-11
 C3O2            5.651-13
 C4H2,butadiyne  2.618-15
 C4H6,butadiene  2.267-13
 C4H6,1butyne    3.254-15
 C4H6,2butyne    6.325-15
 C4H6,cyclo-     1.162-16
 C4H8,1-butene   2.265-14
 C4H8,cis2-buten 1.365-14
 C4H8,tr2-butene 1.547-14
 C4H8,isobutene  2.086-14
 C4H10,n-butane  8.769-16
 C4H10,isobutane 3.859-16
 C5H6,1,3cyclo-  2.792-15
 C6H6            1.009-13
 *H              6.5197-8
 HCN             4.1998-5
 HCO             5.404-10
 HCCO            1.093-14
 HNC             1.9311-7
 HNCO            3.6129-7
 *H2             3.0045-1
 HCHO,formaldehy 2.0164-7
 HCOOH           8.0543-9
 H2O             8.3415-3
 NCO             1.150-14
 *NH             2.230-15
 NH2             5.092-11
 NH3             1.1781-4
 *NO             8.426-14
 *N2             4.4807-1
 N2H2            8.541-16
 N2H4            1.448-16
 *OH             1.986-11
 C(gr)           9.7651-3

  * THERMODYNAMIC PROPERTIES FITTED TO 20000.K









         THERMODYNAMIC EQUILIBRIUM COMBUSTION PROPERTIES AT ASSIGNED

                                     VOLUME

 CASE =                

             REACTANT                       MOLES         ENERGY      TEMP
                                                         KJ/KG-MOL      K
 FUEL        C3H8                         1.0000000   -107037.874    300.000
 OXIDANT     O2                           5.0000000     -2439.995    300.000
 OXIDANT     N2                          18.8095000     -2440.472    300.000

 O/F=    4.45080  %FUEL= 18.345946  R,EQ.RATIO= 3.500000  PHI,EQ.RATIO= 3.500000

 THERMODYNAMIC PROPERTIES

 P, BAR            6.0580
 T, K             1211.55
 RHO, KG/CU M    1.2085 0
 H, KJ/KG         -13.115
 U, KJ/KG         -514.40
 G, KJ/KG        -12823.1
 S, KJ/(KG)(K)    10.5732

 M, (1/n)          20.095
 MW, MOL WT        19.747
 (dLV/dLP)t      -1.01969
 (dLV/dLT)p        1.2448
 Cp, KJ/(KG)(K)    3.0332
 GAMMAs            1.2371
 SON VEL,M/SEC      787.5

 MOLE FRACTIONS

 CH2             3.175-15
 CH3             2.8809-8
 CH2OH           2.750-13
 CH3O            6.148-15
 CH4             8.2422-3
 CH3OH           2.4064-9
 *CN             6.700-15
 *CO             2.1625-1
 *CO2            4.6405-3
 COOH            2.653-12
 C2H2,acetylene  3.8609-8
 C2H2,vinylidene 2.958-15
 CH2CO,ketene    2.4073-8
 O(CH)2O         6.549-15
 C2H3,vinyl      3.303-13
 CH3CN           1.7889-7
 CH3CO,acetyl    1.373-12
 C2H4            7.4018-7
 C2H4O,ethylen-o 7.137-16
 CH3CHO,ethanal  8.375-10
 CH3COOH         6.122-12
 C2H5            1.042-11
 C2H6            1.8525-7
 C2H5OH          7.064-13
 CH3OCH3         7.978-16
 OCCN            5.865-16
 C2N2            3.906-12
 C3H3,2-propynl  1.639-13
 C3H4,allene     1.142-11
 C3H4,propyne    3.689-11
 C3H4,cyclo-     1.768-15
 C3H5,allyl      4.053-13
 C3H6,propylene  3.394-10
 C3H6,cyclo-     3.105-13
 C3H6O,acetone   3.173-13
 C3H6O,propanal  4.895-14
 C3H7,n-propyl   7.077-16
 C3H7,i-propyl   9.213-16
 C3H8            1.394-11
 C3O2            4.813-13
 C4H2,butadiyne  1.806-15
 C4H6,butadiene  2.142-13
 C4H6,1butyne    2.946-15
 C4H6,2butyne    5.841-15
 C4H6,cyclo-     1.063-16
 C4H8,1-butene   2.395-14
 C4H8,cis2-buten 1.457-14
 C4H8,tr2-butene 1.652-14
 C4H8,isobutene  2.238-14
 C4H10,n-butane  1.043-15
 C4H10,isobutane 4.623-16
 C5H6,1,3cyclo-  2.597-15
 C6H6            9.824-14
 *H              5.4179-8
 HCN             3.7480-5
 HCO             4.669-10
 HCCO            8.410-15
 HNC             1.6346-7
 HNCO            3.5431-7
 *H2             3.0273-1
 HCHO,formaldehy 1.9953-7
 HCOOH           8.8450-9
 H2O             9.2111-3
 NCO             9.066-15
 *NH             1.644-15
 NH2             4.363-11
 NH3             1.2412-4
 *NO             6.875-14
 *N2             4.4145-1
 N2H2            7.140-16
 N2H4            1.351-16
 *OH             1.717-11
 C(gr)           1.7306-2

  * THERMODYNAMIC PROPERTIES FITTED TO 20000.K









         THERMODYNAMIC EQUILIBRIUM COMBUSTION PROPERTIES AT ASSIGNED

                                     VOLUME

 CASE =                

             REACTANT                       MOLES         ENERGY      TEMP
                                                         KJ/KG-MOL      K
 FUEL        C3H8                         1.0000000   -107037.874    300.000
 OXIDANT     O2                           5.0000000     -2439.995    300.000
 OXIDANT     N2                          18.8095000     -2440.472    300.000

 O/F=    4.32716  %FUEL= 18.771720  R,EQ.RATIO= 3.600000  PHI,EQ.RATIO= 3.600000

 THERMODYNAMIC PROPERTIES

 P, BAR            6.0209
 T, K             1201.92
 RHO, KG/CU M    1.2085 0
 H, KJ/KG         -26.162
 U, KJ/KG         -524.37
 G, KJ/KG        -12746.5
 S, KJ/(KG)(K)    10.5833

 M, (1/n)          20.058
 MW, MOL WT        19.564
 (dLV/dLP)t      -1.02141
 (dLV/dLT)p        1.2683
 Cp, KJ/(KG)(K)    3.1879
 GAMMAs            1.2312
 SON VEL,M/SEC      783.2

 MOLE FRACTIONS

 CH2             2.354-15
 CH3             2.6123-8
 CH2OH           2.540-13
 CH3O            5.521-15
 CH4             8.9913-3
 CH3OH           2.5971-9
 *CN             4.695-15
 *CO             2.1112-1
 *CO2            5.0641-3
 COOH            2.524-12
 C2H2,acetylene  3.2535-8
 C2H2,vinylidene 2.155-15
 CH2CO,ketene    2.2647-8
 O(CH)2O         6.248-15
 C2H3,vinyl      2.657-13
 CH3CN           1.7197-7
 CH3CO,acetyl    1.260-12
 C2H4            7.2994-7
 C2H4O,ethylen-o 6.835-16
 CH3CHO,ethanal  8.780-10
 CH3COOH         7.058-12
 C2H5            9.817-12
 C2H6            2.0644-7
 C2H5OH          7.918-13
 CH3OCH3         8.600-16
 OCCN            4.397-16
 C2N2            3.002-12
 C3H3,2-propynl  1.280-13
 C3H4,allene     1.006-11
 C3H4,propyne    3.267-11
 C3H4,cyclo-     1.456-15
 C3H5,allyl      3.668-13
 C3H6,propylene  3.478-10
 C3H6,cyclo-     3.098-13
 C3H6O,acetone   3.513-13
 C3H6O,propanal  5.263-14
 C3H7,n-propyl   6.842-16
 C3H7,i-propyl   8.988-16
 C3H8            1.598-11
 C3O2            4.127-13
 C4H2,butadiyne  1.272-15
 C4H6,butadiene  2.030-13
 C4H6,1butyne    2.683-15
 C4H6,2butyne    5.419-15
 C4H8,1-butene   2.526-14
 C4H8,cis2-buten 1.549-14
 C4H8,tr2-butene 1.757-14
 C4H8,isobutene  2.391-14
 C4H10,n-butane  1.229-15
 C4H10,isobutane 5.484-16
 C5H6,1,3cyclo-  2.426-15
 C6H6            9.577-14
 *H              4.5487-8
 HCN             3.3650-5
 HCO             4.062-10
 HCCO            6.558-15
 HNC             1.3962-7
 HNCO            3.4735-7
 *H2             3.0484-1
 HCHO,formaldehy 1.9729-7
 HCOOH           9.6398-9
 H2O             1.0101-2
 NCO             7.230-15
 *NH             1.233-15
 NH2             3.770-11
 NH3             1.3035-4
 *NO             5.666-14
 *N2             4.3507-1
 N2H2            6.028-16
 N2H4            1.266-16
 *OH             1.494-11
 C(gr)           2.4646-2

  * THERMODYNAMIC PROPERTIES FITTED TO 20000.K



