
 *******************************************************************************

         NASA-GLENN CHEMICAL EQUILIBRIUM PROGRAM CEA2, MAY 21, 2004
                   BY  BONNIE MCBRIDE AND SANFORD GORDON
      REFS: NASA RP-1311, PART I, 1994 AND NASA RP-1311, PART II, 1996

 *******************************************************************************



 problem    phi,eq.ratio=0.5,0.6,0.7,0.8,0.9,1,1.1,1.2,1.3,1.4,1.5,1.6,1.7,1.8,1.
 9,2,
       uv   rho,kg/m**3=1.42658,  t,k=3800
 react
   fuel=C3H8 moles=1 t,k=300
   oxid=O2 moles=5 t,k=300
 output
      trace=1e-16 siunits short
 end




         THERMODYNAMIC EQUILIBRIUM COMBUSTION PROPERTIES AT ASSIGNED

                                     VOLUME

 CASE =                

             REACTANT                       MOLES         ENERGY      TEMP
                                                         KJ/KG-MOL      K
 FUEL        C3H8                         1.0000000   -107037.874    300.000
 OXIDANT     O2                           5.0000000     -2439.995    300.000

 O/F=    7.25668  %FUEL= 12.111399  R,EQ.RATIO= 0.500000  PHI,EQ.RATIO= 0.500000

 THERMODYNAMIC PROPERTIES

 P, BAR            14.445
 T, K             3332.02
 RHO, KG/CU M    1.4266 0
 H, KJ/KG          651.52
 U, KJ/KG         -361.01
 G, KJ/KG        -33425.6
 S, KJ/(KG)(K)    10.2271

 M, (1/n)          27.361
 (dLV/dLP)t      -1.03981
 (dLV/dLT)p        1.7636
 Cp, KJ/(KG)(K)    6.1907
 GAMMAs            1.1272
 SON VEL,M/SEC     1068.3

 MOLE FRACTIONS

 *C              1.670-11
 *CH             1.938-12
 CH2             1.022-12
 CH3             4.855-13
 CH2OH           6.408-13
 CH3O            1.851-13
 CH4             3.744-14
 CH3OH           1.212-14
 *CO             6.7290-2
 *CO2            1.5816-1
 COOH            2.1420-6
 C2H2,acetylene  1.419-16
 CH2CO,ketene    8.426-15
 O(CH)2O         5.578-16
 HO(CO)2OH       4.175-15
 C2O             6.543-13
 C3O2            2.388-16
 *H              1.1609-2
 HCO             6.3208-7
 HCCO            1.846-14
 HO2             3.3905-4
 *H2             1.2376-2
 HCHO,formaldehy 5.0257-9
 HCOOH           8.6530-8
 H2O             2.3317-1
 H2O2            1.4756-5
 *O              5.0421-2
 *OH             9.8128-2
 *O2             3.6848-1
 O3              2.3042-6

  * THERMODYNAMIC PROPERTIES FITTED TO 20000.K









         THERMODYNAMIC EQUILIBRIUM COMBUSTION PROPERTIES AT ASSIGNED

                                     VOLUME

 CASE =                

             REACTANT                       MOLES         ENERGY      TEMP
                                                         KJ/KG-MOL      K
 FUEL        C3H8                         1.0000000   -107037.874    300.000
 OXIDANT     O2                           5.0000000     -2439.995    300.000

 O/F=    6.04724  %FUEL= 14.189958  R,EQ.RATIO= 0.600000  PHI,EQ.RATIO= 0.600000

 THERMODYNAMIC PROPERTIES

 P, BAR            15.507
 T, K             3431.54
 RHO, KG/CU M    1.4266 0
 H, KJ/KG          677.13
 U, KJ/KG         -409.88
 G, KJ/KG        -35807.4
 S, KJ/(KG)(K)    10.6321

 M, (1/n)          26.248
 (dLV/dLP)t      -1.05020
 (dLV/dLT)p        1.9290
 Cp, KJ/(KG)(K)    7.2695
 GAMMAs            1.1261
 SON VEL,M/SEC     1106.4

 MOLE FRACTIONS

 *C              6.326-11
 *CH             8.319-12
 CH2             4.518-12
 CH3             2.144-12
 CH2OH           2.174-12
 CH3O            6.630-13
 CH4             1.730-13
 CH3OH           4.393-14
 *CO             9.6703-2
 *CO2            1.5669-1
 COOH            3.2963-6
 C2H             2.847-16
 C2H2,acetylene  1.029-15
 CH2CO,ketene    4.161-14
 O(CH)2O         2.150-15
 HO(CO)2OH       7.964-15
 C2O             2.786-12
 C3O2            1.205-15
 *H              1.7746-2
 HCO             1.3748-6
 HCCO            8.950-14
 HO2             3.4474-4
 *H2             1.9160-2
 HCHO,formaldehy 1.2064-8
 HCOOH           1.4628-7
 H2O             2.5380-1
 H2O2            1.6555-5
 *O              5.6264-2
 *OH             1.1166-1
 *O2             2.8760-1
 O3              1.9939-6

  * THERMODYNAMIC PROPERTIES FITTED TO 20000.K









         THERMODYNAMIC EQUILIBRIUM COMBUSTION PROPERTIES AT ASSIGNED

                                     VOLUME

 CASE =                

             REACTANT                       MOLES         ENERGY      TEMP
                                                         KJ/KG-MOL      K
 FUEL        C3H8                         1.0000000   -107037.874    300.000
 OXIDANT     O2                           5.0000000     -2439.995    300.000

 O/F=    5.18335  %FUEL= 16.172474  R,EQ.RATIO= 0.700000  PHI,EQ.RATIO= 0.700000

 THERMODYNAMIC PROPERTIES

 P, BAR            16.479
 T, K             3505.78
 RHO, KG/CU M    1.4266 0
 H, KJ/KG          698.62
 U, KJ/KG         -456.49
 G, KJ/KG        -37885.8
 S, KJ/(KG)(K)    11.0059

 M, (1/n)          25.235
 (dLV/dLP)t      -1.05857
 (dLV/dLT)p        2.0551
 Cp, KJ/(KG)(K)    8.1622
 GAMMAs            1.1260
 SON VEL,M/SEC     1140.5

 MOLE FRACTIONS

 *C              1.703-10
 *CH             2.512-11
 CH2             1.428-11
 CH3             6.952-12
 CH2OH           5.634-12
 CH3O            1.787-12
 CH4             5.949-13
 CH3OH           1.225-13
 *CO             1.2618-1
 *CO2            1.5146-1
 COOH            4.4676-6
 *C2             1.690-16
 C2H             1.413-15
 C2H2,acetylene  4.893-15
 CH2CO,ketene    1.452-13
 O(CH)2O         6.065-15
 HO(CO)2OH       1.269-14
 C2O             8.312-12
 C3O2            4.137-15
 *H              2.4350-2
 HCO             2.4697-6
 HCCO            3.004-13
 HO2             3.2925-4
 *H2             2.7215-2
 HCHO,formaldehy 2.3854-8
 HCOOH           2.1750-7
 H2O             2.7073-1
 H2O2            1.7395-5
 *O              5.8020-2
 *OH             1.1979-1
 *O2             2.2190-1
 O3              1.5993-6

  * THERMODYNAMIC PROPERTIES FITTED TO 20000.K









         THERMODYNAMIC EQUILIBRIUM COMBUSTION PROPERTIES AT ASSIGNED

                                     VOLUME

 CASE =                

             REACTANT                       MOLES         ENERGY      TEMP
                                                         KJ/KG-MOL      K
 FUEL        C3H8                         1.0000000   -107037.874    300.000
 OXIDANT     O2                           5.0000000     -2439.995    300.000

 O/F=    4.53543  %FUEL= 18.065451  R,EQ.RATIO= 0.800000  PHI,EQ.RATIO= 0.800000

 THERMODYNAMIC PROPERTIES

 P, BAR            17.378
 T, K             3562.10
 RHO, KG/CU M    1.4266 0
 H, KJ/KG          717.14
 U, KJ/KG         -501.00
 G, KJ/KG        -39722.1
 S, KJ/(KG)(K)    11.3526

 M, (1/n)          24.313
 (dLV/dLP)t      -1.06491
 (dLV/dLT)p        2.1453
 Cp, KJ/(KG)(K)    8.8797
 GAMMAs            1.1265
 SON VEL,M/SEC     1171.5

 MOLE FRACTIONS

 *C              3.687-10
 *CH             6.061-11
 CH2             3.652-11
 CH3             1.856-11
 CH2OH           1.229-11
 CH3O            4.012-12
 CH4             1.700-12
 CH3OH           2.892-13
 *CO             1.5497-1
 *CO2            1.4385-1
 COOH            5.5661-6
 *C2             5.994-16
 C2H             5.196-15
 C2H2,acetylene  1.787-14
 C2H2,vinylidene 1.658-16
 CH2CO,ketene    4.070-13
 O(CH)2O         1.402-14
 HO(CO)2OH       1.792-14
 CH3CO,acetyl    1.881-16
 C2O             1.979-11
 C3O2            1.114-14
 *H              3.1169-2
 HCO             3.9259-6
 HCCO            7.990-13
 HO2             2.9980-4
 *H2             3.6608-2
 HCHO,formaldehy 4.1681-8
 HCOOH           2.9713-7
 H2O             2.8441-1
 H2O2            1.7403-5
 *O              5.6637-2
 *OH             1.2332-1
 *O2             1.6871-1
 O3              1.2060-6

  * THERMODYNAMIC PROPERTIES FITTED TO 20000.K









         THERMODYNAMIC EQUILIBRIUM COMBUSTION PROPERTIES AT ASSIGNED

                                     VOLUME

 CASE =                

             REACTANT                       MOLES         ENERGY      TEMP
                                                         KJ/KG-MOL      K
 FUEL        C3H8                         1.0000000   -107037.874    300.000
 OXIDANT     O2                           5.0000000     -2439.995    300.000

 O/F=    4.03149  %FUEL= 19.874823  R,EQ.RATIO= 0.900000  PHI,EQ.RATIO= 0.900000

 THERMODYNAMIC PROPERTIES

 P, BAR            18.214
 T, K             3604.38
 RHO, KG/CU M    1.4266 0
 H, KJ/KG          733.19
 U, KJ/KG         -543.54
 G, KJ/KG        -41348.6
 S, KJ/(KG)(K)    11.6752

 M, (1/n)          23.473
 (dLV/dLP)t      -1.06925
 (dLV/dLT)p        2.2021
 Cp, KJ/(KG)(K)    9.4254
 GAMMAs            1.1274
 SON VEL,M/SEC     1199.7

 MOLE FRACTIONS

 *C              6.856-10
 *CH             1.252-10
 CH2             8.071-11
 CH3             4.343-11
 CH2OH           2.380-11
 CH3O            7.936-12
 CH4             4.292-12
 CH3OH           6.084-13
 CH3OOH          1.259-16
 *CO             1.8263-1
 *CO2            1.3475-1
 COOH            6.5214-6
 *C2             1.705-15
 C2H             1.557-14
 C2H2,acetylene  5.465-14
 C2H2,vinylidene 5.421-16
 CH2CO,ketene    9.843-13
 O(CH)2O         2.823-14
 HO(CO)2OH       2.314-14
 CH3CO,acetyl    5.403-16
 C2O             4.036-11
 C3O2            2.540-14
 *H              3.7984-2
 HCO             5.7311-6
 HCCO            1.812-12
 HO2             2.6192-4
 *H2             4.7459-2
 HCHO,formaldehy 6.6896-8
 HCOOH           3.8205-7
 H2O             2.9514-1
 H2O2            1.6709-5
 *O              5.2920-2
 *OH             1.2289-1
 *O2             1.2593-1
 O3              8.5853-7

  * THERMODYNAMIC PROPERTIES FITTED TO 20000.K









         THERMODYNAMIC EQUILIBRIUM COMBUSTION PROPERTIES AT ASSIGNED

                                     VOLUME

 CASE =                

             REACTANT                       MOLES         ENERGY      TEMP
                                                         KJ/KG-MOL      K
 FUEL        C3H8                         1.0000000   -107037.874    300.000
 OXIDANT     O2                           5.0000000     -2439.995    300.000

 O/F=    3.62834  %FUEL= 21.606008  R,EQ.RATIO= 1.000000  PHI,EQ.RATIO= 1.000000

 THERMODYNAMIC PROPERTIES

 P, BAR            18.990
 T, K             3634.64
 RHO, KG/CU M    1.4266 0
 H, KJ/KG          746.90
 U, KJ/KG         -584.24
 G, KJ/KG        -42781.4
 S, KJ/(KG)(K)    11.9760

 M, (1/n)          22.702
 (dLV/dLP)t      -1.07150
 (dLV/dLT)p        2.2259
 Cp, KJ/(KG)(K)    9.7916
 GAMMAs            1.1284
 SON VEL,M/SEC     1225.6

 MOLE FRACTIONS

 *C              1.1365-9
 *CH             2.301-10
 CH2             1.603-10
 CH3             9.255-11
 CH2OH           4.222-11
 CH3O            1.429-11
 CH4             9.943-12
 CH3OH           1.179-12
 CH3OOH          2.172-16
 *CO             2.0894-1
 *CO2            1.2475-1
 COOH            7.2788-6
 *C2             4.122-15
 C2H             4.021-14
 C2H2,acetylene  1.476-13
 C2H2,vinylidene 1.534-15
 CH2CO,ketene    2.143-12
 O(CH)2O         5.138-14
 HO(CO)2OH       2.788-14
 CH3CO,acetyl    1.368-15
 C2O             7.341-11
 C3O2            5.141-14
 *H              4.4573-2
 HCO             7.8515-6
 HCCO            3.659-12
 HO2             2.1991-4
 *H2             5.9932-2
 HCHO,formaldehy 1.0094-7
 HCOOH           4.6906-7
 H2O             3.0308-1
 H2O2            1.5446-5
 *O              4.7548-2
 *OH             1.1903-1
 *O2             9.1883-2
 O3              5.7619-7

  * THERMODYNAMIC PROPERTIES FITTED TO 20000.K









         THERMODYNAMIC EQUILIBRIUM COMBUSTION PROPERTIES AT ASSIGNED

                                     VOLUME

 CASE =                

             REACTANT                       MOLES         ENERGY      TEMP
                                                         KJ/KG-MOL      K
 FUEL        C3H8                         1.0000000   -107037.874    300.000
 OXIDANT     O2                           5.0000000     -2439.995    300.000

 O/F=    3.29849  %FUEL= 23.263968  R,EQ.RATIO= 1.100000  PHI,EQ.RATIO= 1.100000

 THERMODYNAMIC PROPERTIES

 P, BAR            19.707
 T, K             3653.83
 RHO, KG/CU M    1.4266 0
 H, KJ/KG          758.20
 U, KJ/KG         -623.22
 G, KJ/KG        -44025.8
 S, KJ/(KG)(K)    12.2567

 M, (1/n)          21.992
 (dLV/dLP)t      -1.07153
 (dLV/dLT)p        2.2156
 Cp, KJ/(KG)(K)    9.9603
 GAMMAs            1.1297
 SON VEL,M/SEC     1249.2

 MOLE FRACTIONS

 *C              1.7155-9
 *CH             3.855-10
 CH2             2.933-10
 CH3             1.840-10
 CH2OH           6.995-11
 CH3O            2.390-11
 CH4             2.167-11
 CH3OH           2.147-12
 CH3OOH          3.439-16
 *CO             2.3377-1
 *CO2            1.1428-1
 COOH            7.7971-6
 *C2             8.761-15
 C2H             9.270-14
 C2H2,acetylene  3.638-13
 C2H2,vinylidene 3.894-15
 CH2CO,ketene    4.315-12
 O(CH)2O         8.648-14
 HO(CO)2OH       3.167-14
 C2H3,vinyl      1.699-16
 CH3CO,acetyl    3.150-15
 C2O             1.221-10
 C3O2            9.507-14
 *H              5.0690-2
 HCO             1.0228-5
 HCCO            6.758-12
 HO2             1.7721-4
 *H2             7.4229-2
 HCHO,formaldehy 1.4530-7
 HCOOH           5.5478-7
 H2O             3.0830-1
 H2O2            1.3751-5
 *O              4.1112-2
 *OH             1.1222-1
 *O2             6.5192-2
 O3              3.6272-7

  * THERMODYNAMIC PROPERTIES FITTED TO 20000.K









         THERMODYNAMIC EQUILIBRIUM COMBUSTION PROPERTIES AT ASSIGNED

                                     VOLUME

 CASE =                

             REACTANT                       MOLES         ENERGY      TEMP
                                                         KJ/KG-MOL      K
 FUEL        C3H8                         1.0000000   -107037.874    300.000
 OXIDANT     O2                           5.0000000     -2439.995    300.000

 O/F=    3.02362  %FUEL= 24.853251  R,EQ.RATIO= 1.200000  PHI,EQ.RATIO= 1.200000

 THERMODYNAMIC PROPERTIES

 P, BAR            20.363
 T, K             3662.16
 RHO, KG/CU M    1.4266 0
 H, KJ/KG          766.83
 U, KJ/KG         -660.59
 G, KJ/KG        -45079.8
 S, KJ/(KG)(K)    12.5190

 M, (1/n)          21.332
 (dLV/dLP)t      -1.06920
 (dLV/dLT)p        2.1698
 Cp, KJ/(KG)(K)    9.9079
 GAMMAs            1.1312
 SON VEL,M/SEC     1270.7

 MOLE FRACTIONS

 *C              2.3862-9
 *CH             5.966-10
 CH2             5.015-10
 CH3             3.469-10
 CH2OH           1.096-10
 CH3O            3.761-11
 CH4             4.522-11
 CH3OH           3.729-12
 CH3OOH          5.057-16
 *CO             2.5701-1
 *CO2            1.0366-1
 COOH            8.0477-6
 *C2             1.673-14
 C2H             1.950-13
 C2H2,acetylene  8.381-13
 C2H2,vinylidene 9.083-15
 CH2CO,ketene    8.193-12
 O(CH)2O         1.366-13
 HO(CO)2OH       3.416-14
 C2H3,vinyl      4.415-16
 CH3CO,acetyl    6.740-15
 C2O             1.887-10
 C3O2            1.638-13
 *H              5.6045-2
 HCO             1.2773-5
 HCCO            1.162-11
 HO2             1.3658-4
 *H2             9.0575-2
 HCHO,formaldehy 2.0151-7
 HCOOH           6.3570-7
 H2O             3.1077-1
 H2O2            1.1769-5
 *O              3.4146-2
 *OH             1.0291-1
 *O2             4.4713-2
 O3              2.1248-7

  * THERMODYNAMIC PROPERTIES FITTED TO 20000.K









         THERMODYNAMIC EQUILIBRIUM COMBUSTION PROPERTIES AT ASSIGNED

                                     VOLUME

 CASE =                

             REACTANT                       MOLES         ENERGY      TEMP
                                                         KJ/KG-MOL      K
 FUEL        C3H8                         1.0000000   -107037.874    300.000
 OXIDANT     O2                           5.0000000     -2439.995    300.000

 O/F=    2.79103  %FUEL= 26.378038  R,EQ.RATIO= 1.300000  PHI,EQ.RATIO= 1.300000

 THERMODYNAMIC PROPERTIES

 P, BAR            20.954
 T, K             3659.33
 RHO, KG/CU M    1.4266 0
 H, KJ/KG          772.35
 U, KJ/KG         -696.44
 G, KJ/KG        -45935.7
 S, KJ/(KG)(K)    12.7641

 M, (1/n)          20.715
 (dLV/dLP)t      -1.06452
 (dLV/dLT)p        2.0884
 Cp, KJ/(KG)(K)    9.6172
 GAMMAs            1.1331
 SON VEL,M/SEC     1290.1

 MOLE FRACTIONS

 *C              3.0756-9
 *CH             8.592-10
 CH2             8.089-10
 CH3             6.271-10
 CH2OH           1.638-10
 CH3O            5.612-11
 CH4             9.147-11
 CH3OH           6.234-12
 CH3OOH          6.947-16
 *CO             2.7859-1
 *CO2            9.3135-2
 COOH            8.0173-6
 *C2             2.905-14
 C2H             3.795-13
 C2H2,acetylene  1.832-12
 C2H2,vinylidene 1.977-14
 CH2CO,ketene    1.485-11
 O(CH)2O         2.047-13
 HO(CO)2OH       3.512-14
 C2H3,vinyl      1.073-15
 CH3CO,acetyl    1.359-14
 C2H4            1.912-16
 CH3CHO,ethanal  1.849-16
 C2O             2.733-10
 C3O2            2.663-13
 *H              6.0310-2
 HCO             1.5361-5
 HCCO            1.881-11
 HO2             1.0016-4
 *H2             1.0920-1
 HCHO,formaldehy 2.7093-7
 HCOOH           7.0810-7
 H2O             3.1042-1
 H2O2            9.6497-6
 *O              2.7140-2
 *OH             9.1627-2
 *O2             2.9448-2
 O3              1.1464-7

  * THERMODYNAMIC PROPERTIES FITTED TO 20000.K









         THERMODYNAMIC EQUILIBRIUM COMBUSTION PROPERTIES AT ASSIGNED

                                     VOLUME

 CASE =                

             REACTANT                       MOLES         ENERGY      TEMP
                                                         KJ/KG-MOL      K
 FUEL        C3H8                         1.0000000   -107037.874    300.000
 OXIDANT     O2                           5.0000000     -2439.995    300.000

 O/F=    2.59167  %FUEL= 27.842178  R,EQ.RATIO= 1.400000  PHI,EQ.RATIO= 1.400000

 THERMODYNAMIC PROPERTIES

 P, BAR            21.472
 T, K             3644.75
 RHO, KG/CU M    1.4266 0
 H, KJ/KG          774.25
 U, KJ/KG         -730.86
 G, KJ/KG        -46581.7
 S, KJ/(KG)(K)    12.9929

 M, (1/n)          20.134
 (dLV/dLP)t      -1.05777
 (dLV/dLT)p        1.9755
 Cp, KJ/(KG)(K)    9.0950
 GAMMAs            1.1356
 SON VEL,M/SEC     1307.4

 MOLE FRACTIONS

 *C              3.6770-9
 *CH             1.1542-9
 CH2             1.2362-9
 CH3             1.0940-9
 CH2OH           2.344-10
 CH3O            7.972-11
 CH4             1.810-10
 CH3OH           1.009-11
 CH3OOH          8.934-16
 *CO             2.9844-1
 *CO2            8.2917-2
 COOH            7.7101-6
 *C2             4.611-14
 C2H             6.890-13
 C2H2,acetylene  3.844-12
 C2H2,vinylidene 4.058-14
 CH2CO,ketene    2.594-11
 O(CH)2O         2.926-13
 HO(CO)2OH       3.450-14
 C2H3,vinyl      2.471-15
 CH3CO,acetyl    2.608-14
 C2H4            5.021-16
 CH3CHO,ethanal  4.008-16
 CH3COOH         1.708-16
 C2O             3.731-10
 C3O2            4.125-13
 *H              6.3133-2
 HCO             1.7833-5
 HCCO            2.884-11
 HO2             6.9446-5
 *H2             1.3030-1
 HCHO,formaldehy 3.5460-7
 HCOOH           7.6819-7
 H2O             3.0711-1
 H2O2            7.5440-6
 *O              2.0538-2
 *OH             7.8968-2
 *O2             1.8489-2
 O3              5.6290-8

  * THERMODYNAMIC PROPERTIES FITTED TO 20000.K









         THERMODYNAMIC EQUILIBRIUM COMBUSTION PROPERTIES AT ASSIGNED

                                     VOLUME

 CASE =                

             REACTANT                       MOLES         ENERGY      TEMP
                                                         KJ/KG-MOL      K
 FUEL        C3H8                         1.0000000   -107037.874    300.000
 OXIDANT     O2                           5.0000000     -2439.995    300.000

 O/F=    2.41889  %FUEL= 29.249218  R,EQ.RATIO= 1.500000  PHI,EQ.RATIO= 1.500000

 THERMODYNAMIC PROPERTIES

 P, BAR            21.910
 T, K             3617.72
 RHO, KG/CU M    1.4266 0
 H, KJ/KG          771.88
 U, KJ/KG         -763.95
 G, KJ/KG        -47005.1
 S, KJ/(KG)(K)    13.2064

 M, (1/n)          19.585
 (dLV/dLP)t      -1.04961
 (dLV/dLT)p        1.8412
 Cp, KJ/(KG)(K)    8.3875
 GAMMAs            1.1389
 SON VEL,M/SEC     1322.6

 MOLE FRACTIONS

 *C              4.0689-9
 *CH             1.4455-9
 CH2             1.7931-9
 CH3             1.8499-9
 CH2OH           3.217-10
 CH3O            1.080-10
 CH4             3.526-10
 CH3OH           1.589-11
 CH3OOH          1.075-15
 *CO             3.1652-1
 *CO2            7.3186-2
 COOH            7.1521-6
 *C2             6.700-14
 C2H             1.171-12
 C2H2,acetylene  7.791-12
 C2H2,vinylidene 7.891-14
 CH2CO,ketene    4.390-11
 O(CH)2O         4.004-13
 HO(CO)2OH       3.239-14
 C2H3,vinyl      5.420-15
 CH3CO,acetyl    4.790-14
 C2H4            1.283-15
 CH3CHO,ethanal  8.412-16
 CH3COOH         2.968-16
 C2O             4.812-10
 C3O2            6.123-13
 *H              6.4178-2
 HCO             1.9997-5
 HCCO            4.206-11
 HO2             4.5200-5
 *H2             1.5397-1
 HCHO,formaldehy 4.5281-7
 HCOOH           8.1240-7
 H2O             3.0072-1
 H2O2            5.5931-6
 *O              1.4710-2
 *OH             6.5643-2
 *O2             1.0987-2
 O3              2.4842-8

  * THERMODYNAMIC PROPERTIES FITTED TO 20000.K









         THERMODYNAMIC EQUILIBRIUM COMBUSTION PROPERTIES AT ASSIGNED

                                     VOLUME

 CASE =                

             REACTANT                       MOLES         ENERGY      TEMP
                                                         KJ/KG-MOL      K
 FUEL        C3H8                         1.0000000   -107037.874    300.000
 OXIDANT     O2                           5.0000000     -2439.995    300.000

 O/F=    2.26771  %FUEL= 30.602434  R,EQ.RATIO= 1.600000  PHI,EQ.RATIO= 1.600000

 THERMODYNAMIC PROPERTIES

 P, BAR            22.260
 T, K             3577.72
 RHO, KG/CU M    1.4266 0
 H, KJ/KG          764.62
 U, KJ/KG         -795.76
 G, KJ/KG        -47195.4
 S, KJ/(KG)(K)    13.4052

 M, (1/n)          19.064
 (dLV/dLP)t      -1.04100
 (dLV/dLT)p        1.6995
 Cp, KJ/(KG)(K)    7.5768
 GAMMAs            1.1432
 SON VEL,M/SEC     1335.6

 MOLE FRACTIONS

 *C              4.1513-9
 *CH             1.6829-9
 CH2             2.4664-9
 CH3             3.0364-9
 CH2OH           4.236-10
 CH3O            1.394-10
 CH4             6.786-10
 CH3OH           2.437-11
 CH3OOH          1.208-15
 *CO             3.3279-1
 *CO2            6.4095-2
 COOH            6.3924-6
 *C2             8.897-14
 C2H             1.865-12
 C2H2,acetylene  1.532-11
 C2H2,vinylidene 1.458-13
 CH2CO,ketene    7.228-11
 O(CH)2O         5.256-13
 HO(CO)2OH       2.908-14
 C2H3,vinyl      1.137-14
 CH3CO,acetyl    8.445-14
 C2H4            3.210-15
 CH3CHO,ethanal  1.718-15
 CH3COOH         5.007-16
 C2O             5.865-10
 C3O2            8.749-13
 *H              6.3208-2
 HCO             2.1652-5
 HCCO            5.841-11
 HO2             2.7434-5
 *H2             1.8017-1
 HCHO,formaldehy 5.6476-7
 HCOOH           8.3779-7
 H2O             2.9119-1
 H2O2            3.9118-6
 *O              9.9146-3
 *OH             5.2439-2
 *O2             6.1394-3
 O3              9.7435-9

  * THERMODYNAMIC PROPERTIES FITTED TO 20000.K









         THERMODYNAMIC EQUILIBRIUM COMBUSTION PROPERTIES AT ASSIGNED

                                     VOLUME

 CASE =                

             REACTANT                       MOLES         ENERGY      TEMP
                                                         KJ/KG-MOL      K
 FUEL        C3H8                         1.0000000   -107037.874    300.000
 OXIDANT     O2                           5.0000000     -2439.995    300.000

 O/F=    2.13432  %FUEL= 31.904858  R,EQ.RATIO= 1.700000  PHI,EQ.RATIO= 1.700000

 THERMODYNAMIC PROPERTIES

 P, BAR            22.517
 T, K             3524.65
 RHO, KG/CU M    1.4266 0
 H, KJ/KG          751.98
 U, KJ/KG         -826.38
 G, KJ/KG        -47148.1
 S, KJ/(KG)(K)    13.5900

 M, (1/n)          18.567
 (dLV/dLP)t      -1.03282
 (dLV/dLT)p        1.5648
 Cp, KJ/(KG)(K)    6.7571
 GAMMAs            1.1487
 SON VEL,M/SEC     1346.5

 MOLE FRACTIONS

 *C              3.8887-9
 *CH             1.8152-9
 CH2             3.2109-9
 CH3             4.8372-9
 CH2OH           5.344-10
 CH3O            1.712-10
 CH4             1.2920-9
 CH3OH           3.641-11
 CH3OOH          1.263-15
 *CO             3.4723-1
 *CO2            5.5768-2
 COOH            5.5005-6
 *C2             1.076-13
 C2H             2.780-12
 C2H2,acetylene  2.929-11
 C2H2,vinylidene 2.559-13
 CH2CO,ketene    1.160-10
 O(CH)2O         6.626-13
 HO(CO)2OH       2.500-14
 C2H3,vinyl      2.283-14
 CH3CO,acetyl    1.431-13
 C2H4            7.877-15
 CH3CHO,ethanal  3.420-15
 CH3COOH         8.218-16
 C2O             6.754-10
 C3O2            1.207-12
 *H              6.0167-2
 HCO             2.2622-5
 HCCO            7.729-11
 HO2             1.5448-5
 *H2             2.0860-1
 HCHO,formaldehy 6.8814-7
 HCOOH           8.4268-7
 H2O             2.7859-1
 H2O2            2.5701-6
 *O              6.2595-3
 *OH             4.0135-2
 *O2             3.2111-3
 O3              3.3685-9

  * THERMODYNAMIC PROPERTIES FITTED TO 20000.K









         THERMODYNAMIC EQUILIBRIUM COMBUSTION PROPERTIES AT ASSIGNED

                                     VOLUME

 CASE =                

             REACTANT                       MOLES         ENERGY      TEMP
                                                         KJ/KG-MOL      K
 FUEL        C3H8                         1.0000000   -107037.874    300.000
 OXIDANT     O2                           5.0000000     -2439.995    300.000

 O/F=    2.01575  %FUEL= 33.159295  R,EQ.RATIO= 1.800000  PHI,EQ.RATIO= 1.800000

 THERMODYNAMIC PROPERTIES

 P, BAR            22.676
 T, K             3459.08
 RHO, KG/CU M    1.4266 0
 H, KJ/KG          733.64
 U, KJ/KG         -855.88
 G, KJ/KG        -46868.1
 S, KJ/(KG)(K)    13.7614

 M, (1/n)          18.094
 (dLV/dLP)t      -1.02568
 (dLV/dLT)p        1.4464
 Cp, KJ/(KG)(K)    6.0022
 GAMMAs            1.1554
 SON VEL,M/SEC     1355.2

 MOLE FRACTIONS

 *C              3.3338-9
 *CH             1.8085-9
 CH2             3.9481-9
 CH3             7.4720-9
 CH2OH           6.455-10
 CH3O            1.998-10
 CH4             2.4343-9
 CH3OH           5.298-11
 CH3OOH          1.228-15
 *CO             3.5988-1
 *CO2            4.8285-2
 COOH            4.5565-6
 *C2             1.184-13
 C2H             3.873-12
 C2H2,acetylene  5.443-11
 C2H2,vinylidene 4.264-13
 CH2CO,ketene    1.816-10
 O(CH)2O         8.028-13
 HO(CO)2OH       2.062-14
 C2H3,vinyl      4.385-14
 CH3CO,acetyl    2.332-13
 C2H4            1.898-14
 CH3CHO,ethanal  6.645-15
 CH3COOH         1.315-15
 C2O             7.345-10
 C3O2            1.612-12
 *H              5.5244-2
 HCO             2.2793-5
 HCCO            9.744-11
 HO2             8.0470-6
 *H2             2.3872-1
 HCHO,formaldehy 8.1914-7
 HCOOH           8.2712-7
 H2O             2.6320-1
 H2O2            1.5823-6
 *O              3.6913-3
 *OH             2.9375-2
 *O2             1.5684-3
 O3              1.0224-9

  * THERMODYNAMIC PROPERTIES FITTED TO 20000.K









         THERMODYNAMIC EQUILIBRIUM COMBUSTION PROPERTIES AT ASSIGNED

                                     VOLUME

 CASE =                

             REACTANT                       MOLES         ENERGY      TEMP
                                                         KJ/KG-MOL      K
 FUEL        C3H8                         1.0000000   -107037.874    300.000
 OXIDANT     O2                           5.0000000     -2439.995    300.000

 O/F=    1.90965  %FUEL= 34.368350  R,EQ.RATIO= 1.900000  PHI,EQ.RATIO= 1.900000

 THERMODYNAMIC PROPERTIES

 P, BAR            22.738
 T, K             3382.12
 RHO, KG/CU M    1.4266 0
 H, KJ/KG          709.59
 U, KJ/KG         -884.30
 G, KJ/KG        -46369.3
 S, KJ/(KG)(K)    13.9199

 M, (1/n)          17.643
 (dLV/dLP)t      -1.01977
 (dLV/dLT)p        1.3480
 Cp, KJ/(KG)(K)    5.3491
 GAMMAs            1.1632
 SON VEL,M/SEC     1361.6

 MOLE FRACTIONS

 *C              2.6112-9
 *CH             1.6617-9
 CH2             4.5788-9
 CH3             1.1182-8
 CH2OH           7.459-10
 CH3O            2.215-10
 CH4             4.5393-9
 CH3OH           7.507-11
 CH3OOH          1.108-15
 *CO             3.7083-1
 *CO2            4.1673-2
 COOH            3.6365-6
 *C2             1.182-13
 C2H             5.043-12
 C2H2,acetylene  9.840-11
 C2H2,vinylidene 6.741-13
 CH2CO,ketene    2.776-10
 O(CH)2O         9.362-13
 HO(CO)2OH       1.635-14
 C2H3,vinyl      8.053-14
 CH3CO,acetyl    3.655-13
 C2H4            4.489-14
 CH3CHO,ethanal  1.261-14
 CH3COOH         2.052-15
 OHCH2COOH       1.144-16
 C2O             7.549-10
 C3O2            2.089-12
 *H              4.8868-2
 HCO             2.2147-5
 HCCO            1.171-10
 HO2             3.8744-6
 *H2             2.6980-1
 HCHO,formaldehy 9.5282-7
 HCOOH           7.9299-7
 H2O             2.4551-1
 H2O2            9.1229-7
 *O              2.0310-3
 *OH             2.0542-2
 *O2             7.1499-4
 O3              2.724-10

  * THERMODYNAMIC PROPERTIES FITTED TO 20000.K









         THERMODYNAMIC EQUILIBRIUM COMBUSTION PROPERTIES AT ASSIGNED

                                     VOLUME

 CASE =                

             REACTANT                       MOLES         ENERGY      TEMP
                                                         KJ/KG-MOL      K
 FUEL        C3H8                         1.0000000   -107037.874    300.000
 OXIDANT     O2                           5.0000000     -2439.995    300.000

 O/F=    1.81417  %FUEL= 35.534442  R,EQ.RATIO= 2.000000  PHI,EQ.RATIO= 2.000000

 THERMODYNAMIC PROPERTIES

 P, BAR            22.707
 T, K             3295.28
 RHO, KG/CU M    1.4266 0
 H, KJ/KG          679.98
 U, KJ/KG         -911.72
 G, KJ/KG        -45671.5
 S, KJ/(KG)(K)    14.0661

 M, (1/n)          17.213
 (dLV/dLP)t      -1.01502
 (dLV/dLT)p        1.2683
 Cp, KJ/(KG)(K)    4.8026
 GAMMAs            1.1720
 SON VEL,M/SEC     1365.8

 MOLE FRACTIONS

 *C              1.8674-9
 *CH             1.4074-9
 CH2             5.0071-9
 CH3             1.6216-8
 CH2OH           8.249-10
 CH3O            2.334-10
 CH4             8.3855-9
 CH3OH           1.037-10
 CH3OOH          9.301-16
 *CO             3.8021-1
 *CO2            3.5908-2
 COOH            2.7991-6
 *C2             1.071-13
 C2H             6.136-12
 C2H2,acetylene  1.732-10
 C2H2,vinylidene 1.012-12
 CH2CO,ketene    4.150-10
 O(CH)2O         1.053-12
 HO(CO)2OH       1.252-14
 C2H3,vinyl      1.415-13
 CH3CO,acetyl    5.520-13
 C2H4            1.044-13
 CH3CHO,ethanal  2.341-14
 CH3COOH         3.133-15
 OHCH2COOH       1.284-16
 C2H5            1.526-16
 C2O             7.340-10
 C3O2            2.634-12
 *H              4.1619-2
 HCO             2.0764-5
 HCCO            1.343-10
 HO2             1.7240-6
 *H2             3.0103-1
 HCHO,formaldehy 1.0839-6
 HCOOH           7.4366-7
 H2O             2.2614-1
 H2O2            4.9256-7
 *O              1.0419-3
 *OH             1.3721-2
 *O2             3.0421-4
 O3              6.373-11

  * THERMODYNAMIC PROPERTIES FITTED TO 20000.K



