
 *******************************************************************************

         NASA-GLENN CHEMICAL EQUILIBRIUM PROGRAM CEA2, MAY 21, 2004
                   BY  BONNIE MCBRIDE AND SANFORD GORDON
      REFS: NASA RP-1311, PART I, 1994 AND NASA RP-1311, PART II, 1996

 *******************************************************************************



 problem    phi,eq.ratio=0.5,0.6,0.7,0.8,0.9,1,1.1,1.2,1.3,1.4,1.5,1.6,1.7,1.8,1.
 9,2,
       uv   rho,kg/m**3=1.9258,  t,k=3800
 react
   fuel=C6H6 moles=1 t,k=300
   oxid=O2 moles=7.5 t,k=300
 output
      trace=1e-16 siunits short
 end




         THERMODYNAMIC EQUILIBRIUM COMBUSTION PROPERTIES AT ASSIGNED

                                     VOLUME

 CASE =                

             REACTANT                       MOLES         ENERGY      TEMP
                                                         KJ/KG-MOL      K
 FUEL        C6H6                         1.0000000     80537.766    300.000
 OXIDANT     O2                           7.5000000     -2439.995    300.000

 O/F=    6.14480  %FUEL= 13.996184  R,EQ.RATIO= 0.500000  PHI,EQ.RATIO= 0.500000

 THERMODYNAMIC PROPERTIES

 P, BAR            18.699
 T, K             3473.00
 RHO, KG/CU M    1.9258 0
 H, KJ/KG         1049.72
 U, KJ/KG          78.728
 G, KJ/KG        -31731.8
 S, KJ/(KG)(K)     9.4390

 M, (1/n)          29.739
 (dLV/dLP)t      -1.04779
 (dLV/dLT)p        1.8757
 Cp, KJ/(KG)(K)    6.0375
 GAMMAs            1.1301
 SON VEL,M/SEC     1047.5

 MOLE FRACTIONS

 *C              7.881-11
 *CH             6.480-12
 CH2             2.117-12
 CH3             5.971-13
 CH2OH           7.368-13
 CH3O            2.297-13
 CH4             2.918-14
 CH3OH           9.096-15
 *CO             1.1065-1
 *CO2            2.0907-1
 COOH            3.1183-6
 C2H             2.439-16
 C2H2,acetylene  5.042-16
 CH2CO,ketene    2.365-14
 O(CH)2O         1.497-15
 HO(CO)2OH       7.665-15
 C2O             4.221-12
 C3O2            2.268-15
 *H              1.0666-2
 HCO             1.1038-6
 HCCO            8.493-14
 HO2             3.2221-4
 *H2             6.8816-3
 HCHO,formaldehy 5.9914-9
 HCOOH           8.5438-8
 H2O             1.0713-1
 H2O2            9.5686-6
 *O              6.7849-2
 *OH             8.0687-2
 *O2             4.0673-1
 O3              3.9795-6

  * THERMODYNAMIC PROPERTIES FITTED TO 20000.K









         THERMODYNAMIC EQUILIBRIUM COMBUSTION PROPERTIES AT ASSIGNED

                                     VOLUME

 CASE =                

             REACTANT                       MOLES         ENERGY      TEMP
                                                         KJ/KG-MOL      K
 FUEL        C6H6                         1.0000000     80537.766    300.000
 OXIDANT     O2                           7.5000000     -2439.995    300.000

 O/F=    5.12067  %FUEL= 16.338079  R,EQ.RATIO= 0.600000  PHI,EQ.RATIO= 0.600000

 THERMODYNAMIC PROPERTIES

 P, BAR            19.885
 T, K             3578.30
 RHO, KG/CU M    1.9258 0
 H, KJ/KG         1137.24
 U, KJ/KG          104.66
 G, KJ/KG        -33625.0
 S, KJ/(KG)(K)     9.7147

 M, (1/n)          28.813
 (dLV/dLP)t      -1.05862
 (dLV/dLT)p        2.0380
 Cp, KJ/(KG)(K)    6.8995
 GAMMAs            1.1301
 SON VEL,M/SEC     1080.2

 MOLE FRACTIONS

 *C              2.826-10
 *CH             2.604-11
 CH2             8.668-12
 CH3             2.424-12
 CH2OH           2.329-12
 CH3O            7.665-13
 CH4             1.231-13
 CH3OH           3.045-14
 *CO             1.5546-1
 *CO2            2.0613-1
 COOH            4.6803-6
 *C2             3.670-16
 C2H             1.747-15
 C2H2,acetylene  3.258-15
 CH2CO,ketene    1.058-13
 O(CH)2O         5.301-15
 HO(CO)2OH       1.391-14
 C2O             1.663-11
 C3O2            1.034-14
 *H              1.6113-2
 HCO             2.3024-6
 HCCO            3.765-13
 HO2             3.3206-4
 *H2             1.0433-2
 HCHO,formaldehy 1.3647-8
 HCOOH           1.3939-7
 H2O             1.1609-1
 H2O2            1.0760-5
 *O              7.6632-2
 *OH             9.2068-2
 *O2             3.2671-1
 O3              3.5789-6

  * THERMODYNAMIC PROPERTIES FITTED TO 20000.K









         THERMODYNAMIC EQUILIBRIUM COMBUSTION PROPERTIES AT ASSIGNED

                                     VOLUME

 CASE =                

             REACTANT                       MOLES         ENERGY      TEMP
                                                         KJ/KG-MOL      K
 FUEL        C6H6                         1.0000000     80537.766    300.000
 OXIDANT     O2                           7.5000000     -2439.995    300.000

 O/F=    4.38915  %FUEL= 18.555815  R,EQ.RATIO= 0.700000  PHI,EQ.RATIO= 0.700000

 THERMODYNAMIC PROPERTIES

 P, BAR            20.960
 T, K             3659.23
 RHO, KG/CU M    1.9258 0
 H, KJ/KG         1217.59
 U, KJ/KG          129.22
 G, KJ/KG        -35246.4
 S, KJ/(KG)(K)     9.9649

 M, (1/n)          27.954
 (dLV/dLP)t      -1.06678
 (dLV/dLT)p        2.1517
 Cp, KJ/(KG)(K)    7.5429
 GAMMAs            1.1309
 SON VEL,M/SEC     1109.4

 MOLE FRACTIONS

 *C              7.406-10
 *CH             7.568-11
 CH2             2.607-11
 CH3             7.393-12
 CH2OH           5.748-12
 CH3O            1.969-12
 CH4             3.946-13
 CH3OH           8.002-14
 *CO             1.9972-1
 *CO2            1.9871-1
 COOH            6.2559-6
 *C2             1.686-15
 C2H             8.057-15
 C2H2,acetylene  1.423-14
 C2H2,vinylidene 1.536-16
 CH2CO,ketene    3.433-13
 O(CH)2O         1.408-14
 HO(CO)2OH       2.140-14
 CH3CO,acetyl    1.149-16
 C2O             4.721-11
 C3O2            3.299-14
 *H              2.2050-2
 HCO             4.0277-6
 HCCO            1.188-12
 HO2             3.2424-4
 *H2             1.4607-2
 HCHO,formaldehy 2.5989-8
 HCOOH           2.0213-7
 H2O             1.2357-1
 H2O2            1.1427-5
 *O              8.0707-2
 *OH             9.9687-2
 *O2             2.6060-1
 O3              3.0179-6

  * THERMODYNAMIC PROPERTIES FITTED TO 20000.K









         THERMODYNAMIC EQUILIBRIUM COMBUSTION PROPERTIES AT ASSIGNED

                                     VOLUME

 CASE =                

             REACTANT                       MOLES         ENERGY      TEMP
                                                         KJ/KG-MOL      K
 FUEL        C6H6                         1.0000000     80537.766    300.000
 OXIDANT     O2                           7.5000000     -2439.995    300.000

 O/F=    3.84050  %FUEL= 20.659010  R,EQ.RATIO= 0.800000  PHI,EQ.RATIO= 0.800000

 THERMODYNAMIC PROPERTIES

 P, BAR            21.949
 T, K             3723.37
 RHO, KG/CU M    1.9258 0
 H, KJ/KG         1292.23
 U, KJ/KG          152.51
 G, KJ/KG        -36661.6
 S, KJ/(KG)(K)    10.1934

 M, (1/n)          27.163
 (dLV/dLP)t      -1.07257
 (dLV/dLT)p        2.2251
 Cp, KJ/(KG)(K)    8.0023
 GAMMAs            1.1323
 SON VEL,M/SEC     1136.0

 MOLE FRACTIONS

 *C              1.5931-9
 *CH             1.793-10
 CH2             6.451-11
 CH3             1.883-11
 CH2OH           1.210-11
 CH3O            4.275-12
 CH4             1.063-12
 CH3OH           1.799-13
 *CO             2.4255-1
 *CO2            1.8847-1
 COOH            7.7466-6
 *C2             5.775-15
 C2H             2.819-14
 C2H2,acetylene  4.865-14
 C2H2,vinylidene 5.771-16
 CH2CO,ketene    9.090-13
 O(CH)2O         3.112-14
 HO(CO)2OH       2.948-14
 CH3CO,acetyl    3.693-16
 C2O             1.090-10
 C3O2            8.407-14
 *H              2.8330-2
 HCO             6.2987-6
 HCCO            3.027-12
 HO2             3.0428-4
 *H2             1.9437-2
 HCHO,formaldehy 4.4137-8
 HCOOH           2.7111-7
 H2O             1.2968-1
 H2O2            1.1637-5
 *O              8.1104-2
 *OH             1.0413-1
 *O2             2.0596-1
 O3              2.4219-6

  * THERMODYNAMIC PROPERTIES FITTED TO 20000.K









         THERMODYNAMIC EQUILIBRIUM COMBUSTION PROPERTIES AT ASSIGNED

                                     VOLUME

 CASE =                

             REACTANT                       MOLES         ENERGY      TEMP
                                                         KJ/KG-MOL      K
 FUEL        C6H6                         1.0000000     80537.766    300.000
 OXIDANT     O2                           7.5000000     -2439.995    300.000

 O/F=    3.41378  %FUEL= 22.656315  R,EQ.RATIO= 0.900000  PHI,EQ.RATIO= 0.900000

 THERMODYNAMIC PROPERTIES

 P, BAR            22.867
 T, K             3774.88
 RHO, KG/CU M    1.9258 0
 H, KJ/KG         1362.00
 U, KJ/KG          174.62
 G, KJ/KG        -37907.8
 S, KJ/(KG)(K)    10.4029

 M, (1/n)          26.433
 (dLV/dLP)t      -1.07627
 (dLV/dLT)p        2.2650
 Cp, KJ/(KG)(K)    8.3048
 GAMMAs            1.1338
 SON VEL,M/SEC     1160.3

 MOLE FRACTIONS

 *C              2.9933-9
 *CH             3.694-10
 CH2             1.398-10
 CH3             4.243-11
 CH2OH           2.284-11
 CH3O            8.264-12
 CH4             2.548-12
 CH3OH           3.635-13
 CH3OOH          1.067-16
 *CO             2.8351-1
 *CO2            1.7649-1
 COOH            9.0785-6
 *C2             1.622-14
 C2H             8.184-14
 C2H2,acetylene  1.410-13
 C2H2,vinylidene 1.801-15
 CH2CO,ketene    2.097-12
 O(CH)2O         6.056-14
 HO(CO)2OH       3.744-14
 CH3CO,acetyl    1.007-15
 C2O             2.184-10
 C3O2            1.839-13
 *H              3.4842-2
 HCO             9.1163-6
 HCCO            6.662-12
 HO2             2.7626-4
 *H2             2.4981-2
 HCHO,formaldehy 6.9279-8
 HCOOH           3.4387-7
 H2O             1.3453-1
 H2O2            1.1450-5
 *O              7.8652-2
 *OH             1.0583-1
 *O2             1.6086-1
 O3              1.8603-6

  * THERMODYNAMIC PROPERTIES FITTED TO 20000.K









         THERMODYNAMIC EQUILIBRIUM COMBUSTION PROPERTIES AT ASSIGNED

                                     VOLUME

 CASE =                

             REACTANT                       MOLES         ENERGY      TEMP
                                                         KJ/KG-MOL      K
 FUEL        C6H6                         1.0000000     80537.766    300.000
 OXIDANT     O2                           7.5000000     -2439.995    300.000

 O/F=    3.07240  %FUEL= 24.555531  R,EQ.RATIO= 1.000000  PHI,EQ.RATIO= 1.000000

 THERMODYNAMIC PROPERTIES

 P, BAR            23.721
 T, K             3816.13
 RHO, KG/CU M    1.9258 0
 H, KJ/KG         1427.40
 U, KJ/KG          195.65
 G, KJ/KG        -39007.0
 S, KJ/(KG)(K)    10.5956

 M, (1/n)          25.760
 (dLV/dLP)t      -1.07813
 (dLV/dLT)p        2.2768
 Cp, KJ/(KG)(K)    8.4704
 GAMMAs            1.1356
 SON VEL,M/SEC     1182.7

 MOLE FRACTIONS

 *C              5.0943-9
 *CH             6.875-10
 CH2             2.753-10
 CH3             8.769-11
 CH2OH           3.978-11
 CH3O            1.467-11
 CH4             5.625-12
 CH3OH           6.798-13
 CH3OOH          1.830-16
 *CO             3.2240-1
 *CO2            1.6345-1
 COOH            1.0194-5
 *C2             3.946-14
 C2H             2.079-13
 C2H2,acetylene  3.643-13
 C2H2,vinylidene 4.926-15
 CH2CO,ketene    4.389-12
 O(CH)2O         1.074-13
 HO(CO)2OH       4.463-14
 C2H3,vinyl      1.315-16
 CH3CO,acetyl    2.446-15
 C2O             3.955-10
 C3O2            3.605-13
 *H              4.1482-2
 HCO             1.2466-5
 HCCO            1.321-11
 HO2             2.4331-4
 *H2             3.1324-2
 HCHO,formaldehy 1.0272-7
 HCOOH           4.1797-7
 H2O             1.3817-1
 H2O2            1.0927-5
 *O              7.4014-2
 *OH             1.0511-1
 *O2             1.2377-1
 O3              1.3690-6

  * THERMODYNAMIC PROPERTIES FITTED TO 20000.K









         THERMODYNAMIC EQUILIBRIUM COMBUSTION PROPERTIES AT ASSIGNED

                                     VOLUME

 CASE =                

             REACTANT                       MOLES         ENERGY      TEMP
                                                         KJ/KG-MOL      K
 FUEL        C6H6                         1.0000000     80537.766    300.000
 OXIDANT     O2                           7.5000000     -2439.995    300.000

 O/F=    2.79309  %FUEL= 26.363709  R,EQ.RATIO= 1.100000  PHI,EQ.RATIO= 1.100000

 THERMODYNAMIC PROPERTIES

 P, BAR            24.517
 T, K             3848.49
 RHO, KG/CU M    1.9258 0
 H, KJ/KG         1488.74
 U, KJ/KG          215.68
 G, KJ/KG        -39971.8
 S, KJ/(KG)(K)    10.7732

 M, (1/n)          25.135
 (dLV/dLP)t      -1.07830
 (dLV/dLT)p        2.2640
 Cp, KJ/(KG)(K)    8.5126
 GAMMAs            1.1375
 SON VEL,M/SEC     1203.4

 MOLE FRACTIONS

 *C              8.0317-9
 *CH             1.1838-9
 CH2             5.050-10
 CH3             1.702-10
 CH2OH           6.522-11
 CH3O            2.441-11
 CH4             1.171-11
 CH3OH           1.200-12
 CH3OOH          2.912-16
 *CO             3.5915-1
 *CO2            1.4982-1
 COOH            1.1050-5
 *C2             8.618-14
 C2H             4.788-13
 C2H2,acetylene  8.662-13
 C2H2,vinylidene 1.224-14
 CH2CO,ketene    8.552-12
 O(CH)2O         1.777-13
 HO(CO)2OH       5.047-14
 C2H3,vinyl      3.583-16
 CH3CO,acetyl    5.447-15
 C2O             6.632-10
 C3O2            6.516-13
 *H              4.8141-2
 HCO             1.6319-5
 HCCO            2.420-11
 HO2             2.0790-4
 *H2             3.8572-2
 HCHO,formaldehy 1.4590-7
 HCOOH           4.9099-7
 H2O             1.4061-1
 H2O2            1.0126-5
 *O              6.7735-2
 *OH             1.0224-1
 *O2             9.3482-2
 O3              9.6302-7

  * THERMODYNAMIC PROPERTIES FITTED TO 20000.K









         THERMODYNAMIC EQUILIBRIUM COMBUSTION PROPERTIES AT ASSIGNED

                                     VOLUME

 CASE =                

             REACTANT                       MOLES         ENERGY      TEMP
                                                         KJ/KG-MOL      K
 FUEL        C6H6                         1.0000000     80537.766    300.000
 OXIDANT     O2                           7.5000000     -2439.995    300.000

 O/F=    2.56034  %FUEL= 28.087242  R,EQ.RATIO= 1.200000  PHI,EQ.RATIO= 1.200000

 THERMODYNAMIC PROPERTIES

 P, BAR            25.255
 T, K             3872.59
 RHO, KG/CU M    1.9258 0
 H, KJ/KG         1546.16
 U, KJ/KG          234.76
 G, KJ/KG        -40808.4
 S, KJ/(KG)(K)    10.9370

 M, (1/n)          24.553
 (dLV/dLP)t      -1.07691
 (dLV/dLT)p        2.2291
 Cp, KJ/(KG)(K)    8.4392
 GAMMAs            1.1396
 SON VEL,M/SEC     1222.5

 MOLE FRACTIONS

 *C              1.1899-8
 *CH             1.9158-9
 CH2             8.765-10
 CH3             3.152-10
 CH2OH           1.019-10
 CH3O            3.857-11
 CH4             2.339-11
 CH3OH           2.028-12
 CH3OOH          4.355-16
 *CO             3.9375-1
 *CO2            1.3594-1
 COOH            1.1611-5
 *C2             1.729-13
 C2H             1.023-12
 C2H2,acetylene  1.940-12
 C2H2,vinylidene 2.831-14
 CH2CO,ketene    1.580-11
 O(CH)2O         2.779-13
 HO(CO)2OH       5.448-14
 C2H3,vinyl      9.079-16
 CH3CO,acetyl    1.137-14
 C2O             1.0469-9
 C3O2            1.107-12
 *H              5.4687-2
 HCO             2.0622-5
 HCCO            4.176-11
 HO2             1.7203-4
 *H2             4.6861-2
 HCHO,formaldehy 2.0045-7
 HCOOH           5.6038-7
 H2O             1.4183-1
 H2O2            9.1062-6
 *O              6.0282-2
 *OH             9.7433-2
 *O2             6.9006-2
 O3              6.4449-7

  * THERMODYNAMIC PROPERTIES FITTED TO 20000.K









         THERMODYNAMIC EQUILIBRIUM COMBUSTION PROPERTIES AT ASSIGNED

                                     VOLUME

 CASE =                

             REACTANT                       MOLES         ENERGY      TEMP
                                                         KJ/KG-MOL      K
 FUEL        C6H6                         1.0000000     80537.766    300.000
 OXIDANT     O2                           7.5000000     -2439.995    300.000

 O/F=    2.36339  %FUEL= 29.731939  R,EQ.RATIO= 1.300000  PHI,EQ.RATIO= 1.300000

 THERMODYNAMIC PROPERTIES

 P, BAR            25.935
 T, K             3888.60
 RHO, KG/CU M    1.9258 0
 H, KJ/KG         1599.69
 U, KJ/KG          252.97
 G, KJ/KG        -41517.5
 S, KJ/(KG)(K)    11.0881

 M, (1/n)          24.008
 (dLV/dLP)t      -1.07402
 (dLV/dLT)p        2.1735
 Cp, KJ/(KG)(K)    8.2535
 GAMMAs            1.1418
 SON VEL,M/SEC     1240.0

 MOLE FRACTIONS

 *C              1.6712-8
 *CH             2.9441-9
 CH2             1.4558-9
 CH3             5.642-10
 CH2OH           1.533-10
 CH3O            5.841-11
 CH4             4.541-11
 CH3OH           3.314-12
 CH3OOH          6.167-16
 *CO             4.2621-1
 *CO2            1.2205-1
 COOH            1.1851-5
 *C2             3.240-13
 C2H             2.061-12
 C2H2,acetylene  4.162-12
 C2H2,vinylidene 6.205-14
 CH2CO,ketene    2.807-11
 O(CH)2O         4.156-13
 HO(CO)2OH       5.632-14
 C2H3,vinyl      2.181-15
 CH3CO,acetyl    2.258-14
 C2H4            1.952-16
 CH3CHO,ethanal  1.793-16
 C2O             1.5732-9
 C3O2            1.791-12
 *H              6.0957-2
 HCO             2.5299-5
 HCCO            6.868-11
 HO2             1.3737-4
 *H2             5.6357-2
 HCHO,formaldehy 2.6821-7
 HCOOH           6.2346-7
 H2O             1.4177-1
 H2O2            7.9287-6
 *O              5.2075-2
 *OH             9.0885-2
 *O2             4.9516-2
 O3              4.0731-7

  * THERMODYNAMIC PROPERTIES FITTED TO 20000.K









         THERMODYNAMIC EQUILIBRIUM COMBUSTION PROPERTIES AT ASSIGNED

                                     VOLUME

 CASE =                

             REACTANT                       MOLES         ENERGY      TEMP
                                                         KJ/KG-MOL      K
 FUEL        C6H6                         1.0000000     80537.766    300.000
 OXIDANT     O2                           7.5000000     -2439.995    300.000

 O/F=    2.19457  %FUEL= 31.303087  R,EQ.RATIO= 1.400000  PHI,EQ.RATIO= 1.400000

 THERMODYNAMIC PROPERTIES

 P, BAR            26.554
 T, K             3896.23
 RHO, KG/CU M    1.9258 0
 H, KJ/KG         1649.23
 U, KJ/KG          270.37
 G, KJ/KG        -42095.5
 S, KJ/(KG)(K)    11.2274

 M, (1/n)          23.494
 (dLV/dLP)t      -1.06968
 (dLV/dLT)p        2.0982
 Cp, KJ/(KG)(K)    7.9570
 GAMMAs            1.1443
 SON VEL,M/SEC     1256.1

 MOLE FRACTIONS

 *C              2.2369-8
 *CH             4.3237-9
 CH2             2.3324-9
 CH3             9.847-10
 CH2OH           2.230-10
 CH3O            8.527-11
 CH4             8.662-11
 CH3OH           5.273-12
 CH3OOH          8.304-16
 *CO             4.5654-1
 *CO2            1.0834-1
 COOH            1.1754-5
 *C2             5.726-13
 C2H             3.964-12
 C2H2,acetylene  8.673-12
 C2H2,vinylidene 1.306-13
 CH2CO,ketene    4.842-11
 O(CH)2O         5.984-13
 HO(CO)2OH       5.581-14
 C2H3,vinyl      5.041-15
 CH3CO,acetyl    4.319-14
 C2H4            4.916-16
 CH3CHO,ethanal  3.753-16
 CH3COOH         1.432-16
 C2O             2.2679-9
 C3O2            2.789-12
 *H              6.6740-2
 HCO             3.0236-5
 HCCO            1.087-10
 HO2             1.0529-4
 *H2             6.7256-2
 HCHO,formaldehy 3.5120-7
 HCOOH           6.7729-7
 H2O             1.4035-1
 H2O2            6.6570-6
 *O              4.3513-2
 *OH             8.2808-2
 *O2             3.4311-2
 O3              2.4064-7

  * THERMODYNAMIC PROPERTIES FITTED TO 20000.K









         THERMODYNAMIC EQUILIBRIUM COMBUSTION PROPERTIES AT ASSIGNED

                                     VOLUME

 CASE =                

             REACTANT                       MOLES         ENERGY      TEMP
                                                         KJ/KG-MOL      K
 FUEL        C6H6                         1.0000000     80537.766    300.000
 OXIDANT     O2                           7.5000000     -2439.995    300.000

 O/F=    2.04827  %FUEL= 32.805512  R,EQ.RATIO= 1.500000  PHI,EQ.RATIO= 1.500000

 THERMODYNAMIC PROPERTIES

 P, BAR            27.107
 T, K             3894.86
 RHO, KG/CU M    1.9258 0
 H, KJ/KG         1694.57
 U, KJ/KG          287.01
 G, KJ/KG        -42534.4
 S, KJ/(KG)(K)    11.3557

 M, (1/n)          23.007
 (dLV/dLP)t      -1.06400
 (dLV/dLT)p        2.0049
 Cp, KJ/(KG)(K)    7.5527
 GAMMAs            1.1472
 SON VEL,M/SEC     1270.7

 MOLE FRACTIONS

 *C              2.8596-8
 *CH             6.0907-9
 CH2             3.6243-9
 CH3             1.6882-9
 CH2OH           3.153-10
 CH3O            1.205-10
 CH4             1.638-10
 CH3OH           8.219-12
 CH3OOH          1.064-15
 *CO             4.8475-1
 *CO2            9.4950-2
 COOH            1.1315-5
 *C2             9.616-13
 C2H             7.347-12
 C2H2,acetylene  1.775-11
 C2H2,vinylidene 2.668-13
 CH2CO,ketene    8.182-11
 O(CH)2O         8.336-13
 HO(CO)2OH       5.295-14
 C2H3,vinyl      1.135-14
 CH3CO,acetyl    8.028-14
 C2H4            1.221-15
 CH3CHO,ethanal  7.691-16
 CH3COOH         2.421-16
 C2O             3.1527-9
 *C3             1.791-16
 C3O2            4.214-12
 *H              7.1768-2
 HCO             3.5272-5
 HCCO            1.664-10
 HO2             7.6875-5
 *H2             7.9791-2
 HCHO,formaldehy 4.5158-7
 HCOOH           7.1869-7
 H2O             1.3741-1
 H2O2            5.3576-6
 *O              3.4984-2
 *OH             7.3446-2
 *O2             2.2767-2
 O3              1.3113-7

  * THERMODYNAMIC PROPERTIES FITTED TO 20000.K









         THERMODYNAMIC EQUILIBRIUM COMBUSTION PROPERTIES AT ASSIGNED

                                     VOLUME

 CASE =                

             REACTANT                       MOLES         ENERGY      TEMP
                                                         KJ/KG-MOL      K
 FUEL        C6H6                         1.0000000     80537.766    300.000
 OXIDANT     O2                           7.5000000     -2439.995    300.000

 O/F=    1.92025  %FUEL= 34.243626  R,EQ.RATIO= 1.600000  PHI,EQ.RATIO= 1.600000

 THERMODYNAMIC PROPERTIES

 P, BAR            27.586
 T, K             3883.54
 RHO, KG/CU M    1.9258 0
 H, KJ/KG         1735.36
 U, KJ/KG          302.93
 G, KJ/KG        -42822.5
 S, KJ/(KG)(K)    11.4735

 M, (1/n)          22.542
 (dLV/dLP)t      -1.05719
 (dLV/dLT)p        1.8964
 Cp, KJ/(KG)(K)    7.0503
 GAMMAs            1.1507
 SON VEL,M/SEC     1283.9

 MOLE FRACTIONS

 *C              3.4917-8
 *CH             8.2428-9
 CH2             5.4830-9
 CH3             2.8613-9
 CH2OH           4.340-10
 CH3O            1.650-10
 CH4             3.095-10
 CH3OH           1.260-11
 CH3OOH          1.297-15
 *CO             5.1087-1
 *CO2            8.2008-2
 COOH            1.0543-5
 *C2             1.542-12
 C2H             1.321-11
 C2H2,acetylene  3.607-11
 C2H2,vinylidene 5.341-13
 CH2CO,ketene    1.364-10
 O(CH)2O         1.127-12
 HO(CO)2OH       4.793-14
 C2H3,vinyl      2.514-14
 CH3CO,acetyl    1.461-13
 C2H4            3.030-15
 CH3CHO,ethanal  1.557-15
 CH3COOH         4.008-16
 C2O             4.2414-9
 *C3             3.812-16
 C3O2            6.218-12
 *H              7.5714-2
 HCO             4.0189-5
 HCCO            2.481-10
 HO2             5.2943-5
 *H2             9.4219-2
 HCHO,formaldehy 5.7152-7
 HCOOH           7.4416-7
 H2O             1.3278-1
 H2O2            4.0992-6
 *O              2.6871-2
 *OH             6.3106-2
 *O2             1.4317-2
 O3              6.4783-8

  * THERMODYNAMIC PROPERTIES FITTED TO 20000.K









         THERMODYNAMIC EQUILIBRIUM COMBUSTION PROPERTIES AT ASSIGNED

                                     VOLUME

 CASE =                

             REACTANT                       MOLES         ENERGY      TEMP
                                                         KJ/KG-MOL      K
 FUEL        C6H6                         1.0000000     80537.766    300.000
 OXIDANT     O2                           7.5000000     -2439.995    300.000

 O/F=    1.80730  %FUEL= 35.621473  R,EQ.RATIO= 1.700000  PHI,EQ.RATIO= 1.700000

 THERMODYNAMIC PROPERTIES

 P, BAR            27.981
 T, K             3861.10
 RHO, KG/CU M    1.9258 0
 H, KJ/KG         1771.13
 U, KJ/KG          318.19
 G, KJ/KG        -42945.2
 S, KJ/(KG)(K)    11.5812

 M, (1/n)          22.095
 (dLV/dLP)t      -1.04961
 (dLV/dLT)p        1.7778
 Cp, KJ/(KG)(K)    6.4721
 GAMMAs            1.1549
 SON VEL,M/SEC     1295.4

 MOLE FRACTIONS

 *C              4.0659-8
 *CH             1.0716-8
 CH2             8.0959-9
 CH3             4.8197-9
 CH2OH           5.822-10
 CH3O            2.191-10
 CH4             5.890-10
 CH3OH           1.905-11
 CH3OOH          1.494-15
 *CO             5.3490-1
 *CO2            6.9614-2
 COOH            9.4674-6
 *C2             2.368-12
 C2H             2.321-11
 C2H2,acetylene  7.347-11
 C2H2,vinylidene 1.056-12
 CH2CO,ketene    2.259-10
 O(CH)2O         1.482-12
 HO(CO)2OH       4.114-14
 C2H3,vinyl      5.536-14
 CH3CO,acetyl    2.619-13
 C2H4            7.607-15
 CH3CHO,ethanal  3.138-15
 CH3COOH         6.525-16
 C2O             5.5352-9
 *C3             7.885-16
 C3O2            9.012-12
 *H              7.8202-2
 HCO             4.4704-5
 HCCO            3.613-10
 HO2             3.3954-5
 *H2             1.1081-1
 HCHO,formaldehy 7.1293-7
 HCOOH           7.5000-7
 H2O             1.2623-1
 H2O2            2.9492-6
 *O              1.9538-2
 *OH             5.2188-2
 *O2             8.4226-3
 O3              2.8397-8

  * THERMODYNAMIC PROPERTIES FITTED TO 20000.K









         THERMODYNAMIC EQUILIBRIUM COMBUSTION PROPERTIES AT ASSIGNED

                                     VOLUME

 CASE =                

             REACTANT                       MOLES         ENERGY      TEMP
                                                         KJ/KG-MOL      K
 FUEL        C6H6                         1.0000000     80537.766    300.000
 OXIDANT     O2                           7.5000000     -2439.995    300.000

 O/F=    1.70689  %FUEL= 36.942762  R,EQ.RATIO= 1.800000  PHI,EQ.RATIO= 1.800000

 THERMODYNAMIC PROPERTIES

 P, BAR            28.281
 T, K             3826.33
 RHO, KG/CU M    1.9258 0
 H, KJ/KG         1801.34
 U, KJ/KG          332.82
 G, KJ/KG        -42887.0
 S, KJ/(KG)(K)    11.6792

 M, (1/n)          21.664
 (dLV/dLP)t      -1.04179
 (dLV/dLT)p        1.6565
 Cp, KJ/(KG)(K)    5.8547
 GAMMAs            1.1602
 SON VEL,M/SEC     1305.3

 MOLE FRACTIONS

 *C              4.5042-8
 *CH             1.3372-8
 CH2             1.1688-8
 CH3             8.1075-9
 CH2OH           7.603-10
 CH3O            2.817-10
 CH4             1.1375-9
 CH3OH           2.845-11
 CH3OOH          1.616-15
 *CO             5.5683-1
 *CO2            5.7869-2
 COOH            8.1428-6
 *C2             3.493-12
 C2H             4.005-11
 C2H2,acetylene  1.516-10
 C2H2,vinylidene 2.079-12
 CH2CO,ketene    3.740-10
 O(CH)2O         1.895-12
 HO(CO)2OH       3.319-14
 C2H3,vinyl      1.223-13
 CH3CO,acetyl    4.651-13
 C2H4            1.956-14
 CH3CHO,ethanal  6.349-15
 CH3COOH         1.048-15
 C2O             7.0223-9
 *C3             1.602-15
 C3O2            1.291-11
 *H              7.8849-2
 HCO             4.8477-5
 HCCO            5.159-10
 HO2             1.9959-5
 *H2             1.2979-1
 HCHO,formaldehy 8.7687-7
 HCOOH           7.3264-7
 H2O             1.1752-1
 H2O2            1.9674-6
 *O              1.3301-2
 *OH             4.1199-2
 *O2             4.5639-3
 O3              1.0762-8

  * THERMODYNAMIC PROPERTIES FITTED TO 20000.K









         THERMODYNAMIC EQUILIBRIUM COMBUSTION PROPERTIES AT ASSIGNED

                                     VOLUME

 CASE =                

             REACTANT                       MOLES         ENERGY      TEMP
                                                         KJ/KG-MOL      K
 FUEL        C6H6                         1.0000000     80537.766    300.000
 OXIDANT     O2                           7.5000000     -2439.995    300.000

 O/F=    1.61705  %FUEL= 38.210906  R,EQ.RATIO= 1.900000  PHI,EQ.RATIO= 1.900000

 THERMODYNAMIC PROPERTIES

 P, BAR            28.475
 T, K             3778.26
 RHO, KG/CU M    1.9258 0
 H, KJ/KG         1825.48
 U, KJ/KG          346.86
 G, KJ/KG        -42635.3
 S, KJ/(KG)(K)    11.7675

 M, (1/n)          21.246
 (dLV/dLP)t      -1.03432
 (dLV/dLT)p        1.5410
 Cp, KJ/(KG)(K)    5.2451
 GAMMAs            1.1667
 SON VEL,M/SEC     1313.4

 MOLE FRACTIONS

 *C              4.7397-8
 *CH             1.6007-8
 CH2             1.6530-8
 CH3             1.3684-8
 CH2OH           9.645-10
 CH3O            3.496-10
 CH4             2.2445-9
 CH3OH           4.195-11
 CH3OOH          1.624-15
 *CO             5.7665-1
 *CO2            4.6875-2
 COOH            6.6551-6
 *C2             4.975-12
 C2H             6.845-11
 C2H2,acetylene  3.208-10
 C2H2,vinylidene 4.116-12
 CH2CO,ketene    6.228-10
 O(CH)2O         2.356-12
 HO(CO)2OH       2.486-14
 C2H3,vinyl      2.739-13
 CH3CO,acetyl    8.226-13
 C2H4            5.223-14
 CH3CHO,ethanal  1.298-14
 CH3COOH         1.661-15
 OHCH2COOH       1.142-16
 C2O             8.6855-9
 *C3             3.236-15
 C3H3,2-propynl  1.242-16
 C3O2            1.839-11
 *H              7.7343-2
 HCO             5.1144-5
 HCCO            7.250-10
 HO2             1.0551-5
 *H2             1.5128-1
 HCHO,formaldehy 1.0628-6
 HCOOH           6.8924-7
 H2O             1.0643-1
 H2O2            1.1958-6
 *O              8.3721-3
 *OH             3.0737-2
 *O2             2.2366-3
 O3              3.4226-9

  * THERMODYNAMIC PROPERTIES FITTED TO 20000.K









         THERMODYNAMIC EQUILIBRIUM COMBUSTION PROPERTIES AT ASSIGNED

                                     VOLUME

 CASE =                

             REACTANT                       MOLES         ENERGY      TEMP
                                                         KJ/KG-MOL      K
 FUEL        C6H6                         1.0000000     80537.766    300.000
 OXIDANT     O2                           7.5000000     -2439.995    300.000

 O/F=    1.53620  %FUEL= 39.429049  R,EQ.RATIO= 2.000000  PHI,EQ.RATIO= 2.000000

 THERMODYNAMIC PROPERTIES

 P, BAR            28.556
 T, K             3716.61
 RHO, KG/CU M    1.9258 0
 H, KJ/KG         1843.16
 U, KJ/KG          360.35
 G, KJ/KG        -42185.0
 S, KJ/(KG)(K)    11.8463

 M, (1/n)          20.840
 (dLV/dLP)t      -1.02768
 (dLV/dLT)p        1.4384
 Cp, KJ/(KG)(K)    4.6875
 GAMMAs            1.1743
 SON VEL,M/SEC     1319.6

 MOLE FRACTIONS

 *C              4.7457-8
 *CH             1.8424-8
 CH2             2.2986-8
 CH3             2.3304-8
 CH2OH           1.1845-9
 CH3O            4.170-10
 CH4             4.5581-9
 CH3OH           6.094-11
 CH3OOH          1.495-15
 *CO             5.9438-1
 *CO2            3.6736-2
 COOH            5.1168-6
 *C2             6.911-12
 C2H             1.173-10
 C2H2,acetylene  7.068-10
 C2H2,vinylidene 8.302-12
 CH2CO,ketene    1.0514-9
 O(CH)2O         2.843-12
 HO(CO)2OH       1.700-14
 C2H3,vinyl      6.306-13
 CH3CO,acetyl    1.458-12
 C2H4            1.471-13
 CH3CHO,ethanal  2.702-14
 CH3COOH         2.598-15
 OHCH2COOH       1.259-16
 C2H5            2.407-16
 C2O             1.0532-8
 *C3             6.637-15
 C3H3,2-propynl  4.099-16
 C3O2            2.629-11
 *H              7.3562-2
 HCO             5.2382-5
 HCCO            1.0089-9
 HO2             4.9059-6
 *H2             1.7519-1
 HCHO,formaldehy 1.2679-6
 HCOOH           6.1872-7
 H2O             9.2876-2
 H2O2            6.4812-7
 *O              4.8073-3
 *OH             2.1417-2
 *O2             9.7032-4
 O3              8.831-10

  * THERMODYNAMIC PROPERTIES FITTED TO 20000.K



