
 *******************************************************************************

         NASA-GLENN CHEMICAL EQUILIBRIUM PROGRAM CEA2, MAY 21, 2004
                   BY  BONNIE MCBRIDE AND SANFORD GORDON
      REFS: NASA RP-1311, PART I, 1994 AND NASA RP-1311, PART II, 1996

 *******************************************************************************



 problem    phi,eq.ratio=2.1,2.2,2.3,2.4,2.5,2.6,2.7,2.8,2.9,3,3.1,3.2,3.3,3.4,3.
 5,3.6,
       uv   rho,kg/m**3=1.2804,  t,k=3800
 react
   fuel=C8H18,isooctane moles=1 t,k=300
   oxid=O2 moles=12.5 t,k=300
   oxid=N2 moles=47.0238 t,k=300
 output
      trace=1e-16 siunits short
 end




         THERMODYNAMIC EQUILIBRIUM COMBUSTION PROPERTIES AT ASSIGNED

                                     VOLUME

 CASE =                

             REACTANT                       MOLES         ENERGY      TEMP
                                                         KJ/KG-MOL      K
 FUEL        C8H18,isooctane              1.0000000   -226154.811    300.000
 OXIDANT     O2                          12.5000000     -2439.995    300.000
 OXIDANT     N2                          47.0238000     -2440.472    300.000

 O/F=    7.15892  %FUEL= 12.256521  R,EQ.RATIO= 2.100000  PHI,EQ.RATIO= 2.100000

 THERMODYNAMIC PROPERTIES

 P, BAR            8.7778
 T, K             1950.60
 RHO, KG/CU M    1.2804 0
 H, KJ/KG          368.67
 U, KJ/KG         -316.88
 G, KJ/KG        -19161.5
 S, KJ/(KG)(K)    10.0124

 M, (1/n)          23.657
 (dLV/dLP)t      -1.00005
 (dLV/dLT)p        1.0012
 Cp, KJ/(KG)(K)    1.6052
 GAMMAs            1.2811
 SON VEL,M/SEC      937.1

 MOLE FRACTIONS

 *C              5.163-16
 *CH             3.857-15
 CH2             1.270-12
 CH3             8.753-10
 CH2OH           3.520-12
 CH3O            3.213-13
 CH4             4.3866-8
 CH3OH           2.044-11
 *CN             3.638-11
 *CO             1.8173-1
 *CO2            2.1339-2
 COOH            8.2723-9
 C2H             2.593-16
 C2H2,acetylene  1.634-11
 C2H2,vinylidene 1.148-15
 CH2CO,ketene    5.602-11
 O(CH)2O         8.389-15
 C2H3,vinyl      1.256-15
 CH3CN           1.568-13
 CH3CO,acetyl    1.117-14
 C2H4            1.962-13
 CH3CHO,ethanal  1.254-14
 CH3COOH         1.148-15
 C2H6            1.645-16
 OCCN            5.845-14
 C2N2            1.265-13
 C2O             8.686-14
 C3O2            3.857-14
 *H              1.5103-4
 HCN             1.7699-6
 HCO             9.5219-8
 HCCO            1.337-13
 HNC             8.1206-8
 HNCO            2.6253-7
 HNO             1.666-10
 HNO2            3.800-13
 HO2             2.354-12
 *H2             1.5059-1
 HCHO,formaldehy 9.9758-8
 HCOOH           4.9917-8
 H2O             7.7772-2
 H2O2            1.250-11
 *N              1.104-10
 NCO             1.160-10
 *NH             8.908-10
 NH2             2.9628-8
 NH3             8.5222-6
 NH2OH           1.279-12
 *NO             4.2303-7
 NO2             1.774-13
 *N2             5.6840-1
 NCN             5.181-16
 N2H2            1.607-12
 N2H4            2.276-15
 N2O             6.030-11
 N3              1.247-15
 N3H             1.584-14
 *O              5.2414-9
 *OH             8.0353-6
 *O2             1.1733-9

  * THERMODYNAMIC PROPERTIES FITTED TO 20000.K









         THERMODYNAMIC EQUILIBRIUM COMBUSTION PROPERTIES AT ASSIGNED

                                     VOLUME

 CASE =                

             REACTANT                       MOLES         ENERGY      TEMP
                                                         KJ/KG-MOL      K
 FUEL        C8H18,isooctane              1.0000000   -226154.811    300.000
 OXIDANT     O2                          12.5000000     -2439.995    300.000
 OXIDANT     N2                          47.0238000     -2440.472    300.000

 O/F=    6.83352  %FUEL= 12.765658  R,EQ.RATIO= 2.200000  PHI,EQ.RATIO= 2.200000

 THERMODYNAMIC PROPERTIES

 P, BAR            8.5713
 T, K             1877.33
 RHO, KG/CU M    1.2804 0
 H, KJ/KG          342.90
 U, KJ/KG         -326.53
 G, KJ/KG        -18537.1
 S, KJ/(KG)(K)    10.0568

 M, (1/n)          23.317
 (dLV/dLP)t      -1.00004
 (dLV/dLT)p        1.0008
 Cp, KJ/(KG)(K)    1.6075
 GAMMAs            1.2855
 SON VEL,M/SEC      927.7

 MOLE FRACTIONS

 *C              1.647-16
 *CH             1.721-15
 CH2             9.774-13
 CH3             1.2663-9
 CH2OH           3.316-12
 CH3O            2.746-13
 CH4             1.1236-7
 CH3OH           3.142-11
 *CN             2.249-11
 *CO             1.8944-1
 *CO2            1.9025-2
 COOH            4.9831-9
 C2H             2.181-16
 C2H2,acetylene  3.235-11
 C2H2,vinylidene 1.476-15
 CH2CO,ketene    9.527-11
 O(CH)2O         9.089-15
 C2H3,vinyl      2.220-15
 CH3CN           4.697-13
 CH3CO,acetyl    1.791-14
 C2H4            6.535-13
 CH3CHO,ethanal  3.086-14
 CH3COOH         2.284-15
 C2H6            8.268-16
 OCCN            4.773-14
 C2N2            1.788-13
 C2O             5.969-14
 C3O2            5.087-14
 *H              9.2977-5
 HCN             2.3567-6
 HCO             7.1544-8
 HCCO            1.262-13
 HNC             9.3070-8
 HNCO            2.8080-7
 HNO             5.944-11
 HNO2            9.074-14
 HO2             4.701-13
 *H2             1.6583-1
 HCHO,formaldehy 1.1263-7
 HCOOH           4.5856-8
 H2O             6.8624-2
 H2O2            3.705-12
 *N              3.487-11
 NCO             6.474-11
 *NH             3.919-10
 NH2             2.0497-8
 NH3             1.0886-5
 NH2OH           7.061-13
 *NO             1.4885-7
 NO2             3.127-14
 *N2             5.5697-1
 NCN             2.635-16
 N2H2            1.016-12
 N2H4            2.077-15
 N2O             2.091-11
 N3              4.126-16
 N3H             7.695-15
 *O              1.2717-9
 *OH             3.4328-6
 *O2             2.303-10

  * THERMODYNAMIC PROPERTIES FITTED TO 20000.K









         THERMODYNAMIC EQUILIBRIUM COMBUSTION PROPERTIES AT ASSIGNED

                                     VOLUME

 CASE =                

             REACTANT                       MOLES         ENERGY      TEMP
                                                         KJ/KG-MOL      K
 FUEL        C8H18,isooctane              1.0000000   -226154.811    300.000
 OXIDANT     O2                          12.5000000     -2439.995    300.000
 OXIDANT     N2                          47.0238000     -2440.472    300.000

 O/F=    6.53641  %FUEL= 13.268922  R,EQ.RATIO= 2.300000  PHI,EQ.RATIO= 2.300000

 THERMODYNAMIC PROPERTIES

 P, BAR            8.3601
 T, K             1805.37
 RHO, KG/CU M    1.2804 0
 H, KJ/KG          316.86
 U, KJ/KG         -336.07
 G, KJ/KG        -17913.2
 S, KJ/(KG)(K)    10.0977

 M, (1/n)          22.990
 (dLV/dLP)t      -1.00003
 (dLV/dLT)p        1.0005
 Cp, KJ/(KG)(K)    1.6104
 GAMMAs            1.2899
 SON VEL,M/SEC      917.7

 MOLE FRACTIONS

 *CH             7.133-16
 CH2             7.161-13
 CH3             1.7977-9
 CH2OH           3.018-12
 CH3O            2.257-13
 CH4             2.9051-7
 CH3OH           4.774-11
 *CN             1.328-11
 *CO             1.9670-1
 *CO2            1.6935-2
 COOH            2.9018-9
 C2H             1.744-16
 C2H2,acetylene  6.359-11
 C2H2,vinylidene 1.833-15
 CH2CO,ketene    1.611-10
 O(CH)2O         9.637-15
 C2H3,vinyl      3.835-15
 CH3CN           1.424-12
 CH3CO,acetyl    2.824-14
 C2H4            2.195-12
 CH3CHO,ethanal  7.604-14
 CH3COOH         4.546-15
 C2H5            2.188-16
 C2H6            4.229-15
 OCCN            3.770-14
 C2N2            2.507-13
 C2O             3.924-14
 C3O2            6.648-14
 *H              5.5127-5
 HCN             3.1189-6
 HCO             5.2065-8
 HCCO            1.153-13
 HNC             1.0503-7
 HNCO            2.9775-7
 HNO             1.999-11
 HNO2            2.016-14
 HO2             8.621-14
 *H2             1.8060-1
 HCHO,formaldehy 1.2529-7
 HCOOH           4.1493-8
 H2O             5.9700-2
 H2O2            1.025-12
 *N              1.028-11
 NCO             3.472-11
 *NH             1.627-10
 NH2             1.3647-8
 NH3             1.3780-5
 NH2OH           3.715-13
 *NO             4.9705-8
 NO2             5.070-15
 *N2             5.4599-1
 NCN             1.268-16
 N2H2            6.172-13
 N2H4            1.830-15
 N2O             6.890-12
 N3              1.280-16
 N3H             3.560-15
 *O              2.861-10
 *OH             1.3951-6
 *O2             4.180-11

  * THERMODYNAMIC PROPERTIES FITTED TO 20000.K









         THERMODYNAMIC EQUILIBRIUM COMBUSTION PROPERTIES AT ASSIGNED

                                     VOLUME

 CASE =                

             REACTANT                       MOLES         ENERGY      TEMP
                                                         KJ/KG-MOL      K
 FUEL        C8H18,isooctane              1.0000000   -226154.811    300.000
 OXIDANT     O2                          12.5000000     -2439.995    300.000
 OXIDANT     N2                          47.0238000     -2440.472    300.000

 O/F=    6.26406  %FUEL= 13.766412  R,EQ.RATIO= 2.400000  PHI,EQ.RATIO= 2.400000

 THERMODYNAMIC PROPERTIES

 P, BAR            8.1441
 T, K             1734.67
 RHO, KG/CU M    1.2804 0
 H, KJ/KG          290.56
 U, KJ/KG         -345.50
 G, KJ/KG        -17290.1
 S, KJ/(KG)(K)    10.1349

 M, (1/n)          22.675
 (dLV/dLP)t      -1.00003
 (dLV/dLT)p        1.0003
 Cp, KJ/(KG)(K)    1.6134
 GAMMAs            1.2943
 SON VEL,M/SEC      907.3

 MOLE FRACTIONS

 *CH             2.743-16
 CH2             5.012-13
 CH3             2.5248-9
 CH2OH           2.659-12
 CH3O            1.788-13
 CH4             7.6777-7
 CH3OH           7.208-11
 *CN             7.508-12
 *CO             2.0362-1
 *CO2            1.4996-2
 COOH            1.6249-9
 C2H             1.335-16
 C2H2,acetylene  1.258-10
 C2H2,vinylidene 2.224-15
 CH2CO,ketene    2.736-10
 O(CH)2O         1.003-14
 C2H3,vinyl      6.566-15
 CH3CN           4.442-12
 CH3CO,acetyl    4.422-14
 C2H4            7.576-12
 CH3CHO,ethanal  1.901-13
 CH3COOH         9.132-15
 C2H5            6.518-16
 C2H6            2.252-14
 OCCN            2.890-14
 C2N2            3.522-13
 C2O             2.472-14
 C3O2            8.669-14
 *H              3.1406-5
 HCN             4.1295-6
 HCO             3.6676-8
 HCCO            1.023-13
 HNC             1.1738-7
 HNCO            3.1355-7
 HNO             6.285-12
 HNO2            4.101-15
 HO2             1.428-14
 *H2             1.9485-1
 HCHO,formaldehy 1.3769-7
 HCOOH           3.6914-8
 H2O             5.1050-2
 H2O2            2.611-13
 *N              2.806-12
 NCO             1.784-11
 *NH             6.348-11
 NH2             8.7350-9
 NH3             1.7346-5
 NH2OH           1.854-13
 *NO             1.5597-8
 NO2             7.432-16
 *N2             5.3543-1
 N2H2            3.595-13
 N2H4            1.559-15
 N2O             2.136-12
 N3H             1.564-15
 *O              5.895-11
 *OH             5.3489-7
 *O2             6.898-12

  * THERMODYNAMIC PROPERTIES FITTED TO 20000.K









         THERMODYNAMIC EQUILIBRIUM COMBUSTION PROPERTIES AT ASSIGNED

                                     VOLUME

 CASE =                

             REACTANT                       MOLES         ENERGY      TEMP
                                                         KJ/KG-MOL      K
 FUEL        C8H18,isooctane              1.0000000   -226154.811    300.000
 OXIDANT     O2                          12.5000000     -2439.995    300.000
 OXIDANT     N2                          47.0238000     -2440.472    300.000

 O/F=    6.01349  %FUEL= 14.258227  R,EQ.RATIO= 2.500000  PHI,EQ.RATIO= 2.500000

 THERMODYNAMIC PROPERTIES

 P, BAR            7.9234
 T, K             1665.14
 RHO, KG/CU M    1.2804 0
 H, KJ/KG          264.01
 U, KJ/KG         -354.82
 G, KJ/KG        -16668.0
 S, KJ/(KG)(K)    10.1685

 M, (1/n)          22.373
 (dLV/dLP)t      -1.00004
 (dLV/dLT)p        1.0003
 Cp, KJ/(KG)(K)    1.6164
 GAMMAs            1.2987
 SON VEL,M/SEC      896.5

 MOLE FRACTIONS

 CH2             3.362-13
 CH3             3.5383-9
 CH2OH           2.270-12
 CH3O            1.365-13
 CH4             2.1017-6
 CH3OH           1.087-10
 *CN             4.064-12
 *CO             2.1025-1
 *CO2            1.3150-2
 COOH            8.686-10
 C2H2,acetylene  2.545-10
 C2H2,vinylidene 2.668-15
 CH2CO,ketene    4.708-10
 O(CH)2O         1.028-14
 C2H3,vinyl      1.130-14
 CH3CN           1.453-11
 CH3CO,acetyl    6.945-14
 C2H4            2.739-11
 CH3CHO,ethanal  4.883-13
 CH3COOH         1.865-14
 C2H5            2.002-15
 C2H6            1.278-13
 OCCN            2.160-14
 C2N2            5.020-13
 C2O             1.497-14
 C3H4,propyne    2.515-16
 C3O2            1.137-13
 *H              1.7138-5
 HCN             5.5100-6
 HCO             2.4974-8
 HCCO            8.867-14
 HNC             1.3070-7
 HNCO            3.2840-7
 HNO             1.825-12
 HNO2            7.505-16
 HO2             2.094-15
 *H2             2.0858-1
 HCHO,formaldehy 1.4980-7
 HCOOH           3.2177-8
 H2O             4.2710-2
 H2O2            6.023-14
 *N              7.038-13
 NCO             8.749-12
 *NH             2.314-11
 NH2             5.3650-9
 NH3             2.1778-5
 NH2OH           8.712-14
 *NO             4.5442-9
 *N2             5.2526-1
 N2H2            2.004-13
 N2H4            1.286-15
 N2O             6.160-13
 N3H             6.489-16
 *O              1.096-11
 *OH             1.9151-7
 *O2             1.014-12

  * THERMODYNAMIC PROPERTIES FITTED TO 20000.K









         THERMODYNAMIC EQUILIBRIUM COMBUSTION PROPERTIES AT ASSIGNED

                                     VOLUME

 CASE =                

             REACTANT                       MOLES         ENERGY      TEMP
                                                         KJ/KG-MOL      K
 FUEL        C8H18,isooctane              1.0000000   -226154.811    300.000
 OXIDANT     O2                          12.5000000     -2439.995    300.000
 OXIDANT     N2                          47.0238000     -2440.472    300.000

 O/F=    5.78221  %FUEL= 14.744464  R,EQ.RATIO= 2.600000  PHI,EQ.RATIO= 2.600000

 THERMODYNAMIC PROPERTIES

 P, BAR            7.6980
 T, K             1596.71
 RHO, KG/CU M    1.2804 0
 H, KJ/KG          237.19
 U, KJ/KG         -364.03
 G, KJ/KG        -16046.8
 S, KJ/(KG)(K)    10.1985

 M, (1/n)          22.082
 (dLV/dLP)t      -1.00006
 (dLV/dLT)p        1.0004
 Cp, KJ/(KG)(K)    1.6192
 GAMMAs            1.3032
 SON VEL,M/SEC      885.2

 MOLE FRACTIONS

 CH2             2.172-13
 CH3             4.9973-9
 CH2OH           1.880-12
 CH3O            1.004-13
 CH4             6.0500-6
 CH3OH           1.646-10
 *CN             2.112-12
 *CO             2.1667-1
 *CO2            1.1340-2
 COOH            4.389-10
 C2H2,acetylene  5.362-10
 C2H2,vinylidene 3.212-15
 CH2CO,ketene    8.311-10
 O(CH)2O         1.039-14
 C2H3,vinyl      1.993-14
 CH3CN           5.103-11
 CH3CO,acetyl    1.107-13
 C2H4            1.063-10
 CH3CHO,ethanal  1.310-12
 CH3COOH         3.905-14
 C2H5            6.492-15
 C2H6            7.951-13
 C2H5OH          1.760-16
 OCCN            1.581-14
 C2N2            7.378-13
 C2O             8.738-15
 C3H3,2-propynl  2.303-16
 C3H4,allene     4.647-16
 C3H4,propyne    1.277-15
 C3H6,propylene  1.719-16
 C3O2            1.514-13
 *H              8.9227-6
 HCN             7.4771-6
 HCO             1.6405-8
 HCCO            7.557-14
 HNC             1.4615-7
 HNCO            3.4247-7
 HNO             4.826-13
 HNO2            1.206-16
 HO2             2.650-16
 *H2             2.2174-1
 HCHO,formaldehy 1.6159-7
 HCOOH           2.7317-8
 H2O             3.4717-2
 H2O2            1.230-14
 *N              1.606-13
 NCO             4.077-12
 *NH             7.830-12
 NH2             3.1531-9
 NH3             2.7343-5
 NH2OH           3.815-14
 *NO             1.2111-9
 *N2             5.1548-1
 N2H2            1.065-13
 N2H4            1.027-15
 N2O             1.628-13
 N3H             2.531-16
 *O              1.807-12
 *OH             6.3185-8
 *O2             1.293-13

  * THERMODYNAMIC PROPERTIES FITTED TO 20000.K









         THERMODYNAMIC EQUILIBRIUM COMBUSTION PROPERTIES AT ASSIGNED

                                     VOLUME

 CASE =                

             REACTANT                       MOLES         ENERGY      TEMP
                                                         KJ/KG-MOL      K
 FUEL        C8H18,isooctane              1.0000000   -226154.811    300.000
 OXIDANT     O2                          12.5000000     -2439.995    300.000
 OXIDANT     N2                          47.0238000     -2440.472    300.000

 O/F=    5.56805  %FUEL= 15.225217  R,EQ.RATIO= 2.700000  PHI,EQ.RATIO= 2.700000

 THERMODYNAMIC PROPERTIES

 P, BAR            7.4680
 T, K             1529.34
 RHO, KG/CU M    1.2804 0
 H, KJ/KG          210.11
 U, KJ/KG         -373.14
 G, KJ/KG        -15426.8
 S, KJ/(KG)(K)    10.2246

 M, (1/n)          21.801
 (dLV/dLP)t      -1.00012
 (dLV/dLT)p        1.0009
 Cp, KJ/(KG)(K)    1.6225
 GAMMAs            1.3078
 SON VEL,M/SEC      873.4

 MOLE FRACTIONS

 CH2             1.361-13
 CH3             7.2093-9
 CH2OH           1.508-12
 CH3O            7.107-14
 CH4             1.8665-5
 CH3OH           2.512-10
 *CN             1.060-12
 *CO             2.2292-1
 *CO2            9.5139-3
 COOH            2.066-10
 C2H2,acetylene  1.2086-9
 C2H2,vinylidene 3.968-15
 CH2CO,ketene    1.5279-9
 O(CH)2O         1.037-14
 C2H3,vinyl      3.693-14
 CH3CN           1.983-10
 CH3CO,acetyl    1.816-13
 C2H4            4.568-10
 CH3CHO,ethanal  3.737-12
 CH3COOH         8.437-14
 C2H5            2.290-14
 C2H6            5.617-12
 C2H5OH          6.545-16
 OCCN            1.143-14
 C2N2            1.145-12
 C2O             4.952-15
 C3H3,2-propynl  7.960-16
 C3H4,allene     2.636-15
 C3H4,propyne    7.409-15
 C3H6,propylene  1.810-15
 C3O2            2.075-13
 *H              4.4120-6
 HCN             1.0453-5
 HCO             1.0367-8
 HCCO            6.393-14
 HNC             1.6601-7
 HNCO            3.5595-7
 HNO             1.139-13
 *H2             2.3432-1
 HCHO,formaldehy 1.7305-7
 HCOOH           2.2358-8
 H2O             2.7107-2
 H2O2            2.156-15
 *N              3.301-14
 NCO             1.796-12
 *NH             2.440-12
 NH2             1.7670-9
 NH3             3.4410-5
 NH2OH           1.533-14
 *NO             2.895-10
 *N2             5.0607-1
 N2H2            5.380-14
 N2H4            7.947-16
 N2O             3.864-14
 *O              2.578-13
 *OH             1.8864-8
 *O2             1.381-14

  * THERMODYNAMIC PROPERTIES FITTED TO 20000.K









         THERMODYNAMIC EQUILIBRIUM COMBUSTION PROPERTIES AT ASSIGNED

                                     VOLUME

 CASE =                

             REACTANT                       MOLES         ENERGY      TEMP
                                                         KJ/KG-MOL      K
 FUEL        C8H18,isooctane              1.0000000   -226154.811    300.000
 OXIDANT     O2                          12.5000000     -2439.995    300.000
 OXIDANT     N2                          47.0238000     -2440.472    300.000

 O/F=    5.36919  %FUEL= 15.700579  R,EQ.RATIO= 2.800000  PHI,EQ.RATIO= 2.800000

 THERMODYNAMIC PROPERTIES

 P, BAR            7.2336
 T, K             1463.09
 RHO, KG/CU M    1.2804 0
 H, KJ/KG          182.80
 U, KJ/KG         -382.15
 G, KJ/KG        -14809.1
 S, KJ/(KG)(K)    10.2468

 M, (1/n)          21.533
 (dLV/dLP)t      -1.00031
 (dLV/dLT)p        1.0027
 Cp, KJ/(KG)(K)    1.6296
 GAMMAs            1.3122
 SON VEL,M/SEC      861.0

 MOLE FRACTIONS

 CH2             8.398-14
 CH3             1.0845-8
 CH2OH           1.172-12
 CH3O            4.836-14
 CH4             6.3300-5
 CH3OH           3.875-10
 *CN             5.205-13
 *CO             2.2907-1
 *CO2            7.6215-3
 COOH            8.862-11
 C2H2,acetylene  3.0390-9
 C2H2,vinylidene 5.228-15
 CH2CO,ketene    2.9920-9
 O(CH)2O         1.022-14
 C2H3,vinyl      7.487-14
 CH3CN           8.923-10
 CH3CO,acetyl    3.137-13
 C2H4            2.2759-9
 CH3CHO,ethanal  1.163-11
 CH3COOH         1.893-13
 C2H5            9.194-14
 C2H6            4.733-11
 C2H5OH          2.686-15
 OCCN            8.305-15
 C2N2            1.953-12
 C2O             2.767-15
 C3H3,2-propynl  3.248-15
 C3H4,allene     1.823-14
 C3H4,propyne    5.251-14
 C3H5,allyl      3.929-16
 C3H6,propylene  2.412-14
 C3H8            1.032-16
 C3O2            2.988-13
 *H              2.0636-6
 HCN             1.5366-5
 HCO             6.2878-9
 HCCO            5.465-14
 HNC             1.9527-7
 HNCO            3.6901-7
 HNO             2.338-14
 *H2             2.4623-1
 HCHO,formaldehy 1.8415-7
 HCOOH           1.7319-8
 H2O             1.9940-2
 H2O2            3.096-16
 *N              6.050-15
 NCO             7.449-13
 *NH             6.954-13
 NH2             9.412-10
 NH3             4.3475-5
 NH2OH           5.527-15
 *NO             6.044-11
 *N2             4.9702-1
 N2H2            2.572-14
 N2H4            5.946-16
 N2O             8.029-15
 *O              3.092-14
 *OH             4.9697-9
 *O2             1.176-15

  * THERMODYNAMIC PROPERTIES FITTED TO 20000.K









         THERMODYNAMIC EQUILIBRIUM COMBUSTION PROPERTIES AT ASSIGNED

                                     VOLUME

 CASE =                

             REACTANT                       MOLES         ENERGY      TEMP
                                                         KJ/KG-MOL      K
 FUEL        C8H18,isooctane              1.0000000   -226154.811    300.000
 OXIDANT     O2                          12.5000000     -2439.995    300.000
 OXIDANT     N2                          47.0238000     -2440.472    300.000

 O/F=    5.18405  %FUEL= 16.170640  R,EQ.RATIO= 2.900000  PHI,EQ.RATIO= 2.900000

 THERMODYNAMIC PROPERTIES

 P, BAR            6.9975
 T, K             1398.69
 RHO, KG/CU M    1.2804 0
 H, KJ/KG          155.45
 U, KJ/KG         -391.06
 G, KJ/KG        -14201.6
 S, KJ/(KG)(K)    10.2647

 M, (1/n)          21.279
 (dLV/dLP)t      -1.00103
 (dLV/dLT)p        1.0099
 Cp, KJ/(KG)(K)    1.6579
 GAMMAs            1.3147
 SON VEL,M/SEC      847.6

 MOLE FRACTIONS

 CH2             5.312-14
 CH3             1.7613-8
 CH2OH           8.825-13
 CH3O            3.171-14
 CH4             2.4326-4
 CH3OH           6.031-10
 *CN             2.607-13
 *CO             2.3509-1
 *CO2            5.6280-3
 COOH            3.355-11
 C2H2,acetylene  9.1330-9
 C2H2,vinylidene 7.894-15
 CH2CO,ketene    6.4549-9
 O(CH)2O         9.975-15
 C2H3,vinyl      1.781-13
 CH3CN           4.9668-9
 CH3CO,acetyl    5.905-13
 C2H4            1.4037-8
 C2H4O,ethylen-o 1.583-16
 CH3CHO,ethanal  4.077-11
 CH3COOH         4.398-13
 C2H5            4.488-13
 C2H6            5.063-10
 C2H5OH          1.253-14
 OCCN            6.304-15
 C2N2            3.933-12
 C2O             1.586-15
 C3H3,2-propynl  1.735-14
 C3H4,allene     1.701-13
 C3H4,propyne    5.026-13
 C3H5,allyl      4.088-15
 C3H6,propylene  4.484-13
 C3H6,cyclo-     6.444-16
 C3H6O,acetone   8.275-16
 C3H6O,propanal  2.076-16
 C3H8            3.164-15
 C3O2            4.687-13
 C4H2,butadiyne  1.217-16
 C4H6,butadiene  1.258-16
 *H              9.1674-7
 HCN             2.4598-5
 HCO             3.6704-9
 HCCO            4.905-14
 HNC             2.4661-7
 HNCO            3.8160-7
 HNO             4.054-15
 *H2             2.5719-1
 HCHO,formaldehy 1.9466-7
 HCOOH           1.2263-8
 H2O             1.3338-2
 *N              9.977-16
 NCO             2.922-13
 *NH             1.825-13
 NH2             4.780-10
 NH3             5.5070-5
 NH2OH           1.732-15
 *NO             1.071-11
 *N2             4.8842-1
 N2H2            1.169-14
 N2H4            4.310-16
 N2O             1.420-15
 *O              3.039-15
 *OH             1.1213-9

  * THERMODYNAMIC PROPERTIES FITTED TO 20000.K









         THERMODYNAMIC EQUILIBRIUM COMBUSTION PROPERTIES AT ASSIGNED

                                     VOLUME

 CASE =                

             REACTANT                       MOLES         ENERGY      TEMP
                                                         KJ/KG-MOL      K
 FUEL        C8H18,isooctane              1.0000000   -226154.811    300.000
 OXIDANT     O2                          12.5000000     -2439.995    300.000
 OXIDANT     N2                          47.0238000     -2440.472    300.000

 O/F=    5.01125  %FUEL= 16.635487  R,EQ.RATIO= 3.000000  PHI,EQ.RATIO= 3.000000

 THERMODYNAMIC PROPERTIES

 P, BAR            6.7738
 T, K             1340.11
 RHO, KG/CU M    1.2804 0
 H, KJ/KG          129.17
 U, KJ/KG         -399.87
 G, KJ/KG        -13644.5
 S, KJ/(KG)(K)    10.2781

 M, (1/n)          21.061
 (dLV/dLP)t      -1.00382
 (dLV/dLT)p        1.0398
 Cp, KJ/(KG)(K)    1.7837
 GAMMAs            1.3080
 SON VEL,M/SEC      831.9

 MOLE FRACTIONS

 CH2             3.837-14
 CH3             3.2311-8
 CH2OH           6.563-13
 CH3O            2.058-14
 CH4             1.0465-3
 CH3OH           9.186-10
 *CN             1.508-13
 *CO             2.4067-1
 *CO2            3.6160-3
 COOH            1.106-11
 C2H2,acetylene  3.5657-8
 C2H2,vinylidene 1.554-14
 CH2CO,ketene    1.5764-8
 O(CH)2O         9.643-15
 C2H3,vinyl      5.488-13
 CH3CN           3.5668-8
 CH3CO,acetyl    1.255-12
 C2H4            1.1097-7
 C2H4O,ethylen-o 4.039-16
 CH3CHO,ethanal  1.599-10
 CH3COOH         9.988-13
 C2H5            2.801-12
 C2H6            6.8619-9
 C2H5OH          6.481-14
 CH3OCH3         1.168-16
 OCCN            5.508-15
 C2N2            1.043-11
 C2O             1.048-15
 C3H3,2-propynl  1.372-13
 C3H4,allene     2.332-12
 C3H4,propyne    7.069-12
 C3H4,cyclo-     8.118-16
 C3H5,allyl      6.226-14
 C3H6,propylene  1.209-11
 C3H6,cyclo-     1.528-14
 C3H6O,acetone   1.193-14
 C3H6O,propanal  2.607-15
 C3H8            1.392-13
 C3O2            8.412-13
 C4H2,butadiyne  1.780-15
 C4H6,butadiene  6.905-15
 C4H6,1butyne    1.532-16
 C4H6,2butyne    2.426-16
 C4H8,1-butene   2.294-16
 C4H8,cis2-buten 1.261-16
 C4H8,tr2-butene 1.423-16
 C4H8,isobutene  1.829-16
 C6H6            2.823-16
 *H              4.0805-7
 HCN             4.4937-5
 HCO             2.1368-9
 HCCO            5.033-14
 HNC             3.5599-7
 HNCO            3.9271-7
 HNO             6.167-16
 *H2             2.6613-1
 HCHO,formaldehy 2.0359-7
 HCOOH           7.5057-9
 H2O             7.7003-3
 *N              1.668-16
 NCO             1.154-13
 *NH             4.814-14
 NH2             2.419-10
 NH3             6.8768-5
 NH2OH           4.706-16
 *NO             1.671-12
 *N2             4.8072-1
 N2H2            5.311-15
 N2H4            3.086-16
 N2O             2.215-16
 *O              2.639-16
 *OH             2.211-10

  * THERMODYNAMIC PROPERTIES FITTED TO 20000.K









         THERMODYNAMIC EQUILIBRIUM COMBUSTION PROPERTIES AT ASSIGNED

                                     VOLUME

 CASE =                

             REACTANT                       MOLES         ENERGY      TEMP
                                                         KJ/KG-MOL      K
 FUEL        C8H18,isooctane              1.0000000   -226154.811    300.000
 OXIDANT     O2                          12.5000000     -2439.995    300.000
 OXIDANT     N2                          47.0238000     -2440.472    300.000

 O/F=    4.84959  %FUEL= 17.095208  R,EQ.RATIO= 3.100000  PHI,EQ.RATIO= 3.100000

 THERMODYNAMIC PROPERTIES

 P, BAR            6.6081
 T, K             1299.56
 RHO, KG/CU M    1.2804 0
 H, KJ/KG          107.51
 U, KJ/KG         -408.59
 G, KJ/KG        -13260.9
 S, KJ/(KG)(K)    10.2869

 M, (1/n)          20.936
 MW, MOL WT        20.934
 (dLV/dLP)t      -1.00934
 (dLV/dLT)p        1.1074
 Cp, KJ/(KG)(K)    2.1409
 GAMMAs            1.2790
 SON VEL,M/SEC      812.5

 MOLE FRACTIONS

 CH2             3.757-14
 CH3             6.3029-8
 CH2OH           5.171-13
 CH3O            1.466-14
 CH4             3.8334-3
 CH3OH           1.2281-9
 *CN             1.265-13
 *CO             2.4454-1
 *CO2            2.0565-3
 COOH            3.802-12
 C2H2,acetylene  1.5498-7
 C2H2,vinylidene 4.054-14
 CH2CO,ketene    3.8230-8
 O(CH)2O         9.287-15
 C2H3,vinyl      1.988-12
 CH3CN           2.4283-7
 CH3CO,acetyl    2.731-12
 C2H4            8.0698-7
 C2H4O,ethylen-o 1.002-15
 CH3CHO,ethanal  5.461-10
 CH3COOH         1.799-12
 C2H5            1.699-11
 C2H6            7.3771-8
 C2H5OH          2.690-13
 CH3OCH3         4.226-16
 OCCN            6.278-15
 C2N2            3.439-11
 C2O             9.696-16
 C3H3,2-propynl  1.267-12
 C3H4,allene     3.226-11
 C3H4,propyne    9.967-11
 C3H4,cyclo-     8.851-15
 C3H5,allyl      9.270-13
 C3H6,propylene  2.740-10
 C3H6,cyclo-     3.148-13
 C3H6O,acetone   1.342-13
 C3H6O,propanal  2.646-14
 C3H7,n-propyl   9.496-16
 C3H7,i-propyl   1.144-15
 C3H8            4.492-12
 C3O2            1.638-12
 C4H2,butadiyne  3.296-14
 C4H6,butadiene  3.356-13
 C4H6,1butyne    6.473-15
 C4H6,2butyne    1.095-14
 C4H6,cyclo-     2.163-16
 C4H8,1-butene   1.562-14
 C4H8,cis2-buten 8.851-15
 C4H8,tr2-butene 9.995-15
 C4H8,isobutene  1.305-14
 C4H10,n-butane  2.736-16
 C4H10,isobutane 1.145-16
 C5H6,1,3cyclo-  4.599-15
 C6H6            1.213-13
 *H              2.2229-7
 HCN             8.8376-5
 HCO             1.4182-9
 HCCO            6.432-14
 HNC             5.8743-7
 HNCO            3.9859-7
 HNO             1.194-16
 *H2             2.7013-1
 HCHO,formaldehy 2.0797-7
 HCOOH           4.0767-9
 H2O             4.0027-3
 NCO             5.768-14
 *NH             1.775-14
 NH2             1.441-10
 NH3             7.9829-5
 NH2OH           1.389-16
 *NO             3.315-13
 *N2             4.7515-1
 N2H2            2.922-15
 N2H4            2.356-16
 *OH             5.192-11
 C(gr)           1.1291-4

  * THERMODYNAMIC PROPERTIES FITTED TO 20000.K









         THERMODYNAMIC EQUILIBRIUM COMBUSTION PROPERTIES AT ASSIGNED

                                     VOLUME

 CASE =                

             REACTANT                       MOLES         ENERGY      TEMP
                                                         KJ/KG-MOL      K
 FUEL        C8H18,isooctane              1.0000000   -226154.811    300.000
 OXIDANT     O2                          12.5000000     -2439.995    300.000
 OXIDANT     N2                          47.0238000     -2440.472    300.000

 O/F=    4.69804  %FUEL= 17.549886  R,EQ.RATIO= 3.200000  PHI,EQ.RATIO= 3.200000

 THERMODYNAMIC PROPERTIES

 P, BAR            6.5475
 T, K             1285.00
 RHO, KG/CU M    1.2804 0
 H, KJ/KG          94.160
 U, KJ/KG         -417.20
 G, KJ/KG        -13133.1
 S, KJ/(KG)(K)    10.2936

 M, (1/n)          20.893
 MW, MOL WT        20.716
 (dLV/dLP)t      -1.01058
 (dLV/dLT)p        1.1234
 Cp, KJ/(KG)(K)    2.2379
 GAMMAs            1.2720
 SON VEL,M/SEC      806.5

 MOLE FRACTIONS

 CH2             2.539-14
 CH3             5.5507-8
 CH2OH           4.698-13
 CH3O            1.283-14
 CH4             4.3045-3
 CH3OH           1.3699-9
 *CN             7.942-14
 *CO             2.3939-1
 *CO2            2.3476-3
 COOH            3.620-12
 C2H2,acetylene  1.2395-7
 C2H2,vinylidene 2.678-14
 CH2CO,ketene    3.5607-8
 O(CH)2O         8.870-15
 C2H3,vinyl      1.495-12
 CH3CN           2.3100-7
 CH3CO,acetyl    2.460-12
 C2H4            7.9349-7
 C2H4O,ethylen-o 9.540-16
 CH3CHO,ethanal  5.862-10
 CH3COOH         2.203-12
 C2H5            1.571-11
 C2H6            8.5148-8
 C2H5OH          3.151-13
 CH3OCH3         4.701-16
 OCCN            4.340-15
 C2N2            2.438-11
 C2O             6.209-16
 C3H3,2-propynl  9.163-13
 C3H4,allene     2.734-11
 C3H4,propyne    8.507-11
 C3H4,cyclo-     6.861-15
 C3H5,allyl      8.132-13
 C3H6,propylene  2.833-10
 C3H6,cyclo-     3.140-13
 C3H6O,acetone   1.546-13
 C3H6O,propanal  2.934-14
 C3H7,n-propyl   9.083-16
 C3H7,i-propyl   1.108-15
 C3H8            5.376-12
 C3O2            1.361-12
 C4H2,butadiyne  2.082-14
 C4H6,butadiene  3.128-13
 C4H6,1butyne    5.724-15
 C4H6,2butyne    9.928-15
 C4H6,cyclo-     1.935-16
 C4H8,1-butene   1.675-14
 C4H8,cis2-buten 9.595-15
 C4H8,tr2-butene 1.084-14
 C4H8,isobutene  1.424-14
 C4H10,n-butane  3.392-16
 C4H10,isobutane 1.432-16
 C5H6,1,3cyclo-  4.205-15
 C6H6            1.174-13
 *H              1.7682-7
 HCN             7.6879-5
 HCO             1.1920-9
 HCCO            4.681-14
 HNC             4.7850-7
 HNCO            3.9218-7
 *H2             2.7311-1
 HCHO,formaldehy 2.0685-7
 HCOOH           4.6389-9
 H2O             4.5633-3
 NCO             4.324-14
 *NH             1.218-14
 NH2             1.191-10
 NH3             8.5320-5
 NH2OH           1.289-16
 *NO             2.595-13
 *N2             4.6762-1
 N2H2            2.342-15
 N2H4            2.164-16
 *OH             4.366-11
 C(gr)           8.4942-3

  * THERMODYNAMIC PROPERTIES FITTED TO 20000.K









         THERMODYNAMIC EQUILIBRIUM COMBUSTION PROPERTIES AT ASSIGNED

                                     VOLUME

 CASE =                

             REACTANT                       MOLES         ENERGY      TEMP
                                                         KJ/KG-MOL      K
 FUEL        C8H18,isooctane              1.0000000   -226154.811    300.000
 OXIDANT     O2                          12.5000000     -2439.995    300.000
 OXIDANT     N2                          47.0238000     -2440.472    300.000

 O/F=    4.55568  %FUEL= 17.999604  R,EQ.RATIO= 3.300000  PHI,EQ.RATIO= 3.300000

 THERMODYNAMIC PROPERTIES

 P, BAR            6.4907
 T, K             1271.44
 RHO, KG/CU M    1.2804 0
 H, KJ/KG          81.204
 U, KJ/KG         -425.73
 G, KJ/KG        -13014.6
 S, KJ/(KG)(K)    10.3000

 M, (1/n)          20.854
 MW, MOL WT        20.506
 (dLV/dLP)t      -1.01190
 (dLV/dLT)p        1.1405
 Cp, KJ/(KG)(K)    2.3425
 GAMMAs            1.2650
 SON VEL,M/SEC      800.8

 MOLE FRACTIONS

 CH2             1.747-14
 CH3             4.9161-8
 CH2OH           4.284-13
 CH3O            1.129-14
 CH4             4.8045-3
 CH3OH           1.5180-9
 *CN             5.098-14
 *CO             2.3432-1
 *CO2            2.6577-3
 COOH            3.448-12
 C2H2,acetylene  1.0017-7
 C2H2,vinylidene 1.803-14
 CH2CO,ketene    3.3238-8
 O(CH)2O         8.474-15
 C2H3,vinyl      1.140-12
 CH3CN           2.2016-7
 CH3CO,acetyl    2.224-12
 C2H4            7.8050-7
 C2H4O,ethylen-o 9.097-16
 CH3CHO,ethanal  6.264-10
 CH3COOH         2.667-12
 C2H5            1.458-11
 C2H6            9.7554-8
 C2H5OH          3.658-13
 CH3OCH3         5.196-16
 OCCN            3.050-15
 C2N2            1.757-11
 C2O             4.058-16
 C3H3,2-propynl  6.729-13
 C3H4,allene     2.335-11
 C3H4,propyne    7.313-11
 C3H4,cyclo-     5.382-15
 C3H5,allyl      7.176-13
 C3H6,propylene  2.922-10
 C3H6,cyclo-     3.131-13
 C3H6O,acetone   1.767-13
 C3H6O,propanal  3.233-14
 C3H7,n-propyl   8.703-16
 C3H7,i-propyl   1.074-15
 C3H8            6.375-12
 C3O2            1.138-12
 C4H2,butadiyne  1.344-14
 C4H6,butadiene  2.924-13
 C4H6,1butyne    5.089-15
 C4H6,2butyne    9.038-15
 C4H6,cyclo-     1.740-16
 C4H8,1-butene   1.789-14
 C4H8,cis2-buten 1.036-14
 C4H8,tr2-butene 1.171-14
 C4H8,isobutene  1.546-14
 C4H10,n-butane  4.159-16
 C4H10,isobutane 1.771-16
 C5H6,1,3cyclo-  3.861-15
 C6H6            1.137-13
 *H              1.4218-7
 HCN             6.7300-5
 HCO             1.0090-9
 HCCO            3.455-14
 HNC             3.9349-7
 HNCO            3.8570-7
 *H2             2.7587-1
 HCHO,formaldehy 2.0555-7
 HCOOH           5.2362-9
 H2O             5.1634-3
 NCO             3.283-14
 *NH             8.505-15
 NH2             9.933-11
 NH3             9.0853-5
 NH2OH           1.198-16
 *NO             2.053-13
 *N2             4.6037-1
 N2H2            1.897-15
 N2H4            1.995-16
 *OH             3.698-11
 C(gr)           1.6655-2

  * THERMODYNAMIC PROPERTIES FITTED TO 20000.K









         THERMODYNAMIC EQUILIBRIUM COMBUSTION PROPERTIES AT ASSIGNED

                                     VOLUME

 CASE =                

             REACTANT                       MOLES         ENERGY      TEMP
                                                         KJ/KG-MOL      K
 FUEL        C8H18,isooctane              1.0000000   -226154.811    300.000
 OXIDANT     O2                          12.5000000     -2439.995    300.000
 OXIDANT     N2                          47.0238000     -2440.472    300.000

 O/F=    4.42169  %FUEL= 18.444442  R,EQ.RATIO= 3.400000  PHI,EQ.RATIO= 3.400000

 THERMODYNAMIC PROPERTIES

 P, BAR            6.4376
 T, K             1258.82
 RHO, KG/CU M    1.2804 0
 H, KJ/KG          68.624
 U, KJ/KG         -434.16
 G, KJ/KG        -12904.8
 S, KJ/(KG)(K)    10.3060

 M, (1/n)          20.817
 MW, MOL WT        20.305
 (dLV/dLP)t      -1.01328
 (dLV/dLT)p        1.1586
 Cp, KJ/(KG)(K)    2.4539
 GAMMAs            1.2582
 SON VEL,M/SEC      795.4

 MOLE FRACTIONS

 CH2             1.225-14
 CH3             4.3789-8
 CH2OH           3.919-13
 CH3O            9.991-15
 CH4             5.3315-3
 CH3OH           1.6716-9
 *CN             3.344-14
 *CO             2.2931-1
 *CO2            2.9841-3
 COOH            3.286-12
 C2H2,acetylene  8.1783-8
 C2H2,vinylidene 1.238-14
 CH2CO,ketene    3.1097-8
 O(CH)2O         8.099-15
 C2H3,vinyl      8.801-13
 CH3CN           2.1025-7
 CH3CO,acetyl    2.018-12
 C2H4            7.6808-7
 C2H4O,ethylen-o 8.686-16
 CH3CHO,ethanal  6.664-10
 CH3COOH         3.191-12
 C2H5            1.358-11
 C2H6            1.1097-7
 C2H5OH          4.210-13
 CH3OCH3         5.709-16
 OCCN            2.179-15
 C2N2            1.287-11
 C2O             2.706-16
 C3H3,2-propynl  5.017-13
 C3H4,allene     2.009-11
 C3H4,propyne    6.332-11
 C3H4,cyclo-     4.272-15
 C3H5,allyl      6.370-13
 C3H6,propylene  3.009-10
 C3H6,cyclo-     3.122-13
 C3H6O,acetone   2.004-13
 C3H6O,propanal  3.541-14
 C3H7,n-propyl   8.353-16
 C3H7,i-propyl   1.042-15
 C3H8            7.493-12
 C3O2            9.587-13
 C4H2,butadiyne  8.861-15
 C4H6,butadiene  2.741-13
 C4H6,1butyne    4.550-15
 C4H6,2butyne    8.263-15
 C4H6,cyclo-     1.573-16
 C4H8,1-butene   1.903-14
 C4H8,cis2-buten 1.113-14
 C4H8,tr2-butene 1.259-14
 C4H8,isobutene  1.671-14
 C4H10,n-butane  5.047-16
 C4H10,isobutane 2.166-16
 C5H6,1,3cyclo-  3.558-15
 C6H6            1.102-13
 *H              1.1555-7
 HCN             5.9284-5
 HCO             8.603-10
 HCCO            2.586-14
 HNC             3.2662-7
 HNCO            3.7917-7
 *H2             2.7844-1
 HCHO,formaldehy 2.0406-7
 HCOOH           5.8633-9
 H2O             5.7993-3
 NCO             2.524-14
 *NH             6.045-15
 NH2             8.356-11
 NH3             9.6402-5
 NH2OH           1.117-16
 *NO             1.641-13
 *N2             4.5338-1
 N2H2            1.552-15
 N2H4            1.846-16
 *OH             3.154-11
 C(gr)           2.4605-2

  * THERMODYNAMIC PROPERTIES FITTED TO 20000.K









         THERMODYNAMIC EQUILIBRIUM COMBUSTION PROPERTIES AT ASSIGNED

                                     VOLUME

 CASE =                

             REACTANT                       MOLES         ENERGY      TEMP
                                                         KJ/KG-MOL      K
 FUEL        C8H18,isooctane              1.0000000   -226154.811    300.000
 OXIDANT     O2                          12.5000000     -2439.995    300.000
 OXIDANT     N2                          47.0238000     -2440.472    300.000

 O/F=    4.29535  %FUEL= 18.884481  R,EQ.RATIO= 3.500000  PHI,EQ.RATIO= 3.500000

 THERMODYNAMIC PROPERTIES

 P, BAR            6.3879
 T, K             1247.08
 RHO, KG/CU M    1.2804 0
 H, KJ/KG          56.399
 U, KJ/KG         -442.50
 G, KJ/KG        -12803.1
 S, KJ/(KG)(K)    10.3117

 M, (1/n)          20.784
 MW, MOL WT        20.111
 (dLV/dLP)t      -1.01471
 (dLV/dLT)p        1.1776
 Cp, KJ/(KG)(K)    2.5714
 GAMMAs            1.2516
 SON VEL,M/SEC      790.2

 MOLE FRACTIONS

 CH2             8.742-15
 CH3             3.9224-8
 CH2OH           3.598-13
 CH3O            8.884-15
 CH4             5.8833-3
 CH3OH           1.8296-9
 *CN             2.241-14
 *CO             2.2437-1
 *CO2            3.3238-3
 COOH            3.132-12
 C2H2,acetylene  6.7448-8
 C2H2,vinylidene 8.665-15
 CH2CO,ketene    2.9157-8
 O(CH)2O         7.742-15
 C2H3,vinyl      6.885-13
 CH3CN           2.0119-7
 CH3CO,acetyl    1.839-12
 C2H4            7.5626-7
 C2H4O,ethylen-o 8.303-16
 CH3CHO,ethanal  7.058-10
 CH3COOH         3.776-12
 C2H5            1.269-11
 C2H6            1.2538-7
 C2H5OH          4.805-13
 CH3OCH3         6.234-16
 OCCN            1.582-15
 C2N2            9.568-12
 C2O             1.840-16
 C3H3,2-propynl  3.796-13
 C3H4,allene     1.741-11
 C3H4,propyne    5.522-11
 C3H4,cyclo-     3.430-15
 C3H5,allyl      5.688-13
 C3H6,propylene  3.092-10
 C3H6,cyclo-     3.113-13
 C3H6O,acetone   2.256-13
 C3H6O,propanal  3.857-14
 C3H7,n-propyl   8.033-16
 C3H7,i-propyl   1.012-15
 C3H8            8.733-12
 C3O2            8.129-13
 C4H2,butadiyne  5.968-15
 C4H6,butadiene  2.579-13
 C4H6,1butyne    4.091-15
 C4H6,2butyne    7.588-15
 C4H6,cyclo-     1.428-16
 C4H8,1-butene   2.019-14
 C4H8,cis2-buten 1.192-14
 C4H8,tr2-butene 1.349-14
 C4H8,isobutene  1.799-14
 C4H10,n-butane  6.063-16
 C4H10,isobutane 2.623-16
 C5H6,1,3cyclo-  3.292-15
 C6H6            1.070-13
 *H              9.4886-8
 HCN             5.2542-5
 HCO             7.385-10
 HCCO            1.962-14
 HNC             2.7361-7
 HNCO            3.7260-7
 *H2             2.8082-1
 HCHO,formaldehy 2.0243-7
 HCOOH           6.5148-9
 H2O             6.4672-3
 NCO             1.964-14
 *NH             4.371-15
 NH2             7.089-11
 NH3             1.0194-4
 NH2OH           1.044-16
 *NO             1.325-13
 *N2             4.4663-1
 N2H2            1.282-15
 N2H4            1.715-16
 *OH             2.710-11
 C(gr)           3.2351-2

  * THERMODYNAMIC PROPERTIES FITTED TO 20000.K









         THERMODYNAMIC EQUILIBRIUM COMBUSTION PROPERTIES AT ASSIGNED

                                     VOLUME

 CASE =                

             REACTANT                       MOLES         ENERGY      TEMP
                                                         KJ/KG-MOL      K
 FUEL        C8H18,isooctane              1.0000000   -226154.811    300.000
 OXIDANT     O2                          12.5000000     -2439.995    300.000
 OXIDANT     N2                          47.0238000     -2440.472    300.000

 O/F=    4.17604  %FUEL= 19.319796  R,EQ.RATIO= 3.600000  PHI,EQ.RATIO= 3.600000

 THERMODYNAMIC PROPERTIES

 P, BAR            6.3413
 T, K             1236.15
 RHO, KG/CU M    1.2804 0
 H, KJ/KG          44.509
 U, KJ/KG         -450.75
 G, KJ/KG        -12708.9
 S, KJ/(KG)(K)    10.3171

 M, (1/n)          20.753
 MW, MOL WT        19.925
 (dLV/dLP)t      -1.01618
 (dLV/dLT)p        1.1973
 Cp, KJ/(KG)(K)    2.6941
 GAMMAs            1.2453
 SON VEL,M/SEC      785.3

 MOLE FRACTIONS

 CH2             6.346-15
 CH3             3.5326-8
 CH2OH           3.314-13
 CH3O            7.940-15
 CH4             6.4580-3
 CH3OH           1.9909-9
 *CN             1.532-14
 *CO             2.1951-1
 *CO2            3.6738-3
 COOH            2.987-12
 C2H2,acetylene  5.6168-8
 C2H2,vinylidene 6.174-15
 CH2CO,ketene    2.7397-8
 O(CH)2O         7.404-15
 C2H3,vinyl      5.454-13
 CH3CN           1.9290-7
 CH3CO,acetyl    1.682-12
 C2H4            7.4506-7
 C2H4O,ethylen-o 7.947-16
 CH3CHO,ethanal  7.445-10
 CH3COOH         4.421-12
 C2H5            1.189-11
 C2H6            1.4074-7
 C2H5OH          5.441-13
 CH3OCH3         6.771-16
 OCCN            1.166-15
 C2N2            7.221-12
 C2O             1.275-16
 C3H3,2-propynl  2.913-13
 C3H4,allene     1.520-11
 C3H4,propyne    4.848-11
 C3H4,cyclo-     2.785-15
 C3H5,allyl      5.108-13
 C3H6,propylene  3.173-10
 C3H6,cyclo-     3.104-13
 C3H6O,acetone   2.521-13
 C3H6O,propanal  4.178-14
 C3H7,n-propyl   7.740-16
 C3H7,i-propyl   9.850-16
 C3H8            1.010-11
 C3O2            6.937-13
 C4H2,butadiyne  4.101-15
 C4H6,butadiene  2.433-13
 C4H6,1butyne    3.697-15
 C4H6,2butyne    6.997-15
 C4H6,cyclo-     1.304-16
 C4H8,1-butene   2.134-14
 C4H8,cis2-buten 1.272-14
 C4H8,tr2-butene 1.440-14
 C4H8,isobutene  1.930-14
 C4H10,n-butane  7.215-16
 C4H10,isobutane 3.144-16
 C5H6,1,3cyclo-  3.058-15
 C6H6            1.041-13
 *H              7.8699-8
 HCN             4.6841-5
 HCO             6.383-10
 HCCO            1.508-14
 HNC             2.3122-7
 HNCO            3.6601-7
 *H2             2.8303-1
 HCHO,formaldehy 2.0065-7
 HCOOH           7.1851-9
 H2O             7.1630-3
 NCO             1.547-14
 *NH             3.213-15
 NH2             6.064-11
 NH3             1.0746-4
 *NO             1.081-13
 *N2             4.4011-1
 N2H2            1.069-15
 N2H4            1.598-16
 *OH             2.343-11
 C(gr)           3.9901-2

  * THERMODYNAMIC PROPERTIES FITTED TO 20000.K



