
 *******************************************************************************

         NASA-GLENN CHEMICAL EQUILIBRIUM PROGRAM CEA2, MAY 21, 2004
                   BY  BONNIE MCBRIDE AND SANFORD GORDON
      REFS: NASA RP-1311, PART I, 1994 AND NASA RP-1311, PART II, 1996

 *******************************************************************************



 problem    phi,eq.ratio=2.1,2.2,2.3,2.4,2.5,2.6,2.7,2.8,2.9,3,3.1,3.2,3.3,3.4,3.
 5,3.6,
       uv   rho,kg/m**3=1.2841,  t,k=3800
 react
   fuel=CH3OH moles=1 t,k=300
   oxid=O2 moles=1.5 t,k=300
 output
      trace=1e-16 siunits short
 end




         THERMODYNAMIC EQUILIBRIUM COMBUSTION PROPERTIES AT ASSIGNED

                                     VOLUME

 CASE =                

             REACTANT                       MOLES         ENERGY      TEMP
                                                         KJ/KG-MOL      K
 FUEL        CH3OH                        1.0000000   -203352.771    300.000
 OXIDANT     O2                           1.5000000     -2439.995    300.000

 O/F=    0.71333  %FUEL= 58.366015  R,EQ.RATIO= 1.647059  PHI,EQ.RATIO= 2.100000

 THERMODYNAMIC PROPERTIES

 P, BAR            17.054
 T, K             2891.66
 RHO, KG/CU M    1.2841 0
 H, KJ/KG        -2407.82
 U, KJ/KG        -3735.93
 G, KJ/KG        -42245.5
 S, KJ/(KG)(K)    13.7767

 M, (1/n)          18.103
 (dLV/dLP)t      -1.00554
 (dLV/dLT)p        1.1151
 Cp, KJ/(KG)(K)    3.6746
 GAMMAs            1.1763
 SON VEL,M/SEC     1249.9

 MOLE FRACTIONS

 *C              3.046-11
 *CH             3.373-11
 CH2             2.803-10
 CH3             2.4716-9
 CH2OH           1.768-10
 CH3O            3.887-11
 CH4             2.8565-9
 CH3OH           4.388-11
 CH3OOH          1.617-16
 *CO             2.6870-1
 *CO2            6.1050-2
 COOH            1.5070-6
 *C2             4.818-16
 C2H             8.048-14
 C2H2,acetylene  9.944-12
 C2H2,vinylidene 2.419-14
 CH2CO,ketene    6.017-11
 O(CH)2O         1.998-13
 HO(CO)2OH       1.124-14
 C2H3,vinyl      4.694-15
 CH3CO,acetyl    4.975-14
 C2H4            9.357-15
 CH3CHO,ethanal  3.790-15
 CH3COOH         1.083-15
 C2O             2.994-11
 C3O2            2.081-13
 *H              1.3477-2
 HCO             5.2864-6
 HCCO            7.837-12
 HO2             6.1951-7
 *H2             2.4689-1
 HCHO,formaldehy 4.6402-7
 HCOOH           6.8841-7
 H2O             4.0224-1
 H2O2            2.9622-7
 *O              2.2533-4
 *OH             7.2620-3
 *O2             1.4620-4
 O3              7.625-12

  * THERMODYNAMIC PROPERTIES FITTED TO 20000.K









         THERMODYNAMIC EQUILIBRIUM COMBUSTION PROPERTIES AT ASSIGNED

                                     VOLUME

 CASE =                

             REACTANT                       MOLES         ENERGY      TEMP
                                                         KJ/KG-MOL      K
 FUEL        CH3OH                        1.0000000   -203352.771    300.000
 OXIDANT     O2                           1.5000000     -2439.995    300.000

 O/F=    0.68090  %FUEL= 59.491871  R,EQ.RATIO= 1.692308  PHI,EQ.RATIO= 2.200000

 THERMODYNAMIC PROPERTIES

 P, BAR            16.843
 T, K             2809.74
 RHO, KG/CU M    1.2841 0
 H, KJ/KG        -2494.90
 U, KJ/KG        -3806.52
 G, KJ/KG        -41413.2
 S, KJ/(KG)(K)    13.8512

 M, (1/n)          17.811
 (dLV/dLP)t      -1.00404
 (dLV/dLT)p        1.0854
 Cp, KJ/(KG)(K)    3.4310
 GAMMAs            1.1852
 SON VEL,M/SEC     1246.8

 MOLE FRACTIONS

 *C              1.691-11
 *CH             2.239-11
 CH2             2.482-10
 CH3             3.0334-9
 CH2OH           1.759-10
 CH3O            3.651-11
 CH4             4.6548-9
 CH3OH           5.613-11
 CH3OOH          1.253-16
 *CO             2.7335-1
 *CO2            5.7347-2
 COOH            1.1744-6
 *C2             3.075-16
 C2H             7.238-14
 C2H2,acetylene  1.388-11
 C2H2,vinylidene 2.736-14
 CH2CO,ketene    7.829-11
 O(CH)2O         2.075-13
 HO(CO)2OH       9.474-15
 C2H3,vinyl      6.269-15
 CH3CO,acetyl    6.315-14
 C2H4            1.729-14
 CH3CHO,ethanal  6.034-15
 CH3COOH         1.547-15
 C2O             2.419-11
 C3O2            2.304-13
 *H              1.0640-2
 HCO             4.6029-6
 HCCO            7.520-12
 HO2             2.8061-7
 *H2             2.6512-1
 HCHO,formaldehy 4.9937-7
 HCOOH           6.6667-7
 H2O             3.8855-1
 H2O2            1.6546-7
 *O              1.1078-4
 *OH             4.8166-3
 *O2             6.5022-5
 O3              1.839-12

  * THERMODYNAMIC PROPERTIES FITTED TO 20000.K









         THERMODYNAMIC EQUILIBRIUM COMBUSTION PROPERTIES AT ASSIGNED

                                     VOLUME

 CASE =                

             REACTANT                       MOLES         ENERGY      TEMP
                                                         KJ/KG-MOL      K
 FUEL        CH3OH                        1.0000000   -203352.771    300.000
 OXIDANT     O2                           1.5000000     -2439.995    300.000

 O/F=    0.65130  %FUEL= 60.558440  R,EQ.RATIO= 1.735849  PHI,EQ.RATIO= 2.300000

 THERMODYNAMIC PROPERTIES

 P, BAR            16.602
 T, K             2726.80
 RHO, KG/CU M    1.2841 0
 H, KJ/KG        -2580.49
 U, KJ/KG        -3873.40
 G, KJ/KG        -40532.9
 S, KJ/(KG)(K)    13.9183

 M, (1/n)          17.536
 (dLV/dLP)t      -1.00291
 (dLV/dLT)p        1.0629
 Cp, KJ/(KG)(K)    3.2409
 GAMMAs            1.1938
 SON VEL,M/SEC     1242.4

 MOLE FRACTIONS

 *C              8.818-12
 *CH             1.406-11
 CH2             2.107-10
 CH3             3.6293-9
 CH2OH           1.705-10
 CH3O            3.329-11
 CH4             7.5094-9
 CH3OH           7.078-11
 *CO             2.7720-1
 *CO2            5.4214-2
 COOH            9.0203-7
 *C2             1.827-16
 C2H             6.171-14
 C2H2,acetylene  1.884-11
 C2H2,vinylidene 2.961-14
 CH2CO,ketene    *****-11
 O(CH)2O         2.112-13
 HO(CO)2OH       7.950-15
 C2H3,vinyl      8.053-15
 CH3CO,acetyl    7.802-14
 C2H4            3.128-14
 CH3CHO,ethanal  9.442-15
 CH3COOH         2.188-15
 C2O             1.880-11
 C3O2            2.499-13
 *H              8.2053-3
 HCO             3.9217-6
 HCCO            6.976-12
 HO2             1.2278-7
 *H2             2.8233-1
 HCHO,formaldehy 5.3049-7
 HCOOH           6.4214-7
 H2O             3.7484-1
 H2O2            9.0010-8
 *O              5.2525-5
 *OH             3.1257-3
 *O2             2.8093-5
 O3              4.193-13

  * THERMODYNAMIC PROPERTIES FITTED TO 20000.K









         THERMODYNAMIC EQUILIBRIUM COMBUSTION PROPERTIES AT ASSIGNED

                                     VOLUME

 CASE =                

             REACTANT                       MOLES         ENERGY      TEMP
                                                         KJ/KG-MOL      K
 FUEL        CH3OH                        1.0000000   -203352.771    300.000
 OXIDANT     O2                           1.5000000     -2439.995    300.000

 O/F=    0.62416  %FUEL= 61.570285  R,EQ.RATIO= 1.777778  PHI,EQ.RATIO= 2.400000

 THERMODYNAMIC PROPERTIES

 P, BAR            16.339
 T, K             2643.83
 RHO, KG/CU M    1.2841 0
 H, KJ/KG        -2664.40
 U, KJ/KG        -3936.84
 G, KJ/KG        -39621.2
 S, KJ/(KG)(K)    13.9785

 M, (1/n)          17.276
 (dLV/dLP)t      -1.00208
 (dLV/dLT)p        1.0459
 Cp, KJ/(KG)(K)    3.0933
 GAMMAs            1.2021
 SON VEL,M/SEC     1236.8

 MOLE FRACTIONS

 *C              4.345-12
 *CH             8.384-12
 CH2             1.721-10
 CH3             4.2470-9
 CH2OH           1.616-10
 CH3O            2.958-11
 CH4             1.2025-8
 CH3OH           8.824-11
 *CO             2.8038-1
 *CO2            5.1578-2
 COOH            6.8401-7
 *C2             1.017-16
 C2H             5.015-14
 C2H2,acetylene  2.496-11
 C2H2,vinylidene 3.080-14
 CH2CO,ketene    1.258-10
 O(CH)2O         2.113-13
 HO(CO)2OH       6.654-15
 C2H3,vinyl      1.000-14
 CH3CO,acetyl    9.421-14
 C2H4            5.560-14
 CH3CHO,ethanal  1.457-14
 CH3COOH         3.072-15
 C2O             1.410-11
 C3O2            2.663-13
 *H              6.1938-3
 HCO             3.2770-6
 HCCO            6.279-12
 HO2             5.2036-8
 *H2             2.9849-1
 HCHO,formaldehy 5.5741-7
 HCOOH           6.1613-7
 H2O             3.6133-1
 H2O2            4.7805-8
 *O              2.4080-5
 *OH             1.9883-3
 *O2             1.1817-5
 O3              9.081-14

  * THERMODYNAMIC PROPERTIES FITTED TO 20000.K









         THERMODYNAMIC EQUILIBRIUM COMBUSTION PROPERTIES AT ASSIGNED

                                     VOLUME

 CASE =                

             REACTANT                       MOLES         ENERGY      TEMP
                                                         KJ/KG-MOL      K
 FUEL        CH3OH                        1.0000000   -203352.771    300.000
 OXIDANT     O2                           1.5000000     -2439.995    300.000

 O/F=    0.59919  %FUEL= 62.531513  R,EQ.RATIO= 1.818182  PHI,EQ.RATIO= 2.500000

 THERMODYNAMIC PROPERTIES

 P, BAR            16.059
 T, K             2561.61
 RHO, KG/CU M    1.2841 0
 H, KJ/KG        -2746.50
 U, KJ/KG        -3997.12
 G, KJ/KG        -38692.3
 S, KJ/(KG)(K)    14.0325

 M, (1/n)          17.030
 (dLV/dLP)t      -1.00147
 (dLV/dLT)p        1.0333
 Cp, KJ/(KG)(K)    2.9794
 GAMMAs            1.2099
 SON VEL,M/SEC     1230.1

 MOLE FRACTIONS

 *C              2.032-12
 *CH             4.774-12
 CH2             1.358-10
 CH3             4.8756-9
 CH2OH           1.500-10
 CH3O            2.569-11
 CH4             1.9160-8
 CH3OH           1.090-10
 *CO             2.8298-1
 *CO2            4.9372-2
 COOH            5.1291-7
 C2H             3.903-14
 C2H2,acetylene  3.239-11
 C2H2,vinylidene 3.095-14
 CH2CO,ketene    1.562-10
 O(CH)2O         2.086-13
 HO(CO)2OH       5.565-15
 C2H3,vinyl      1.206-14
 CH3CO,acetyl    1.116-13
 C2H4            9.745-14
 CH3CHO,ethanal  2.224-14
 CH3COOH         4.295-15
 C2O             1.025-11
 C3O2            2.798-13
 *H              4.5850-3
 HCO             2.6913-6
 HCCO            5.504-12
 HO2             2.1419-8
 *H2             3.1361-1
 HCHO,formaldehy 5.8035-7
 HCOOH           5.8965-7
 H2O             3.4819-1
 H2O2            2.4844-8
 *O              1.0701-5
 *OH             1.2417-3
 *O2             4.8477-6
 O3              1.876-14

  * THERMODYNAMIC PROPERTIES FITTED TO 20000.K









         THERMODYNAMIC EQUILIBRIUM COMBUSTION PROPERTIES AT ASSIGNED

                                     VOLUME

 CASE =                

             REACTANT                       MOLES         ENERGY      TEMP
                                                         KJ/KG-MOL      K
 FUEL        CH3OH                        1.0000000   -203352.771    300.000
 OXIDANT     O2                           1.5000000     -2439.995    300.000

 O/F=    0.57615  %FUEL= 63.445828  R,EQ.RATIO= 1.857143  PHI,EQ.RATIO= 2.600000

 THERMODYNAMIC PROPERTIES

 P, BAR            15.766
 T, K             2480.77
 RHO, KG/CU M    1.2841 0
 H, KJ/KG        -2826.66
 U, KJ/KG        -4054.45
 G, KJ/KG        -37757.7
 S, KJ/(KG)(K)    14.0807

 M, (1/n)          16.800
 (dLV/dLP)t      -1.00103
 (dLV/dLT)p        1.0239
 Cp, KJ/(KG)(K)    2.8922
 GAMMAs            1.2171
 SON VEL,M/SEC     1222.4

 MOLE FRACTIONS

 *C              9.065-13
 *CH             2.607-12
 CH2             1.040-10
 CH3             5.5061-9
 CH2OH           1.369-10
 CH3O            2.189-11
 CH4             3.0440-8
 CH3OH           1.338-10
 *CO             2.8511-1
 *CO2            4.7536-2
 COOH            3.8086-7
 C2H             2.924-14
 C2H2,acetylene  4.130-11
 C2H2,vinylidene 3.016-14
 CH2CO,ketene    1.919-10
 O(CH)2O         2.035-13
 HO(CO)2OH       4.656-15
 C2H3,vinyl      1.418-14
 CH3CO,acetyl    1.301-13
 C2H4            1.690-13
 CH3CHO,ethanal  3.370-14
 CH3COOH         5.994-15
 C2O             7.242-12
 C3O2            2.904-13
 *H              3.3345-3
 HCO             2.1764-6
 HCCO            4.713-12
 HO2             8.5820-9
 *H2             3.2773-1
 HCHO,formaldehy 5.9967-7
 HCOOH           5.6345-7
 H2O             3.3552-1
 H2O2            1.2658-8
 *O              4.6208-6
 *OH             7.6252-4
 *O2             1.9430-6
 O3              3.710-15

  * THERMODYNAMIC PROPERTIES FITTED TO 20000.K









         THERMODYNAMIC EQUILIBRIUM COMBUSTION PROPERTIES AT ASSIGNED

                                     VOLUME

 CASE =                

             REACTANT                       MOLES         ENERGY      TEMP
                                                         KJ/KG-MOL      K
 FUEL        CH3OH                        1.0000000   -203352.771    300.000
 OXIDANT     O2                           1.5000000     -2439.995    300.000

 O/F=    0.55481  %FUEL= 64.316583  R,EQ.RATIO= 1.894737  PHI,EQ.RATIO= 2.700000

 THERMODYNAMIC PROPERTIES

 P, BAR            15.464
 T, K             2401.81
 RHO, KG/CU M    1.2841 0
 H, KJ/KG        -2904.78
 U, KJ/KG        -4109.04
 G, KJ/KG        -36827.1
 S, KJ/(KG)(K)    14.1237

 M, (1/n)          16.583
 (dLV/dLP)t      -1.00072
 (dLV/dLT)p        1.0170
 Cp, KJ/(KG)(K)    2.8263
 GAMMAs            1.2236
 SON VEL,M/SEC     1213.9

 MOLE FRACTIONS

 *C              3.872-13
 *CH             1.371-12
 CH2             7.747-11
 CH3             6.1316-9
 CH2OH           1.231-10
 CH3O            1.834-11
 CH4             4.8305-8
 CH3OH           1.633-10
 *CO             2.8683-1
 *CO2            4.6021-2
 COOH            2.8037-7
 C2H             2.118-14
 C2H2,acetylene  5.189-11
 C2H2,vinylidene 2.862-14
 CH2CO,ketene    2.339-10
 O(CH)2O         1.967-13
 HO(CO)2OH       3.902-15
 C2H3,vinyl      1.632-14
 CH3CO,acetyl    1.497-13
 C2H4            2.906-13
 CH3CHO,ethanal  5.079-14
 CH3COOH         8.366-15
 C2H5            1.553-16
 C2H6            1.935-16
 C2O             4.990-12
 C3O2            2.984-13
 *H              2.3864-3
 HCO             1.7360-6
 HCCO            3.954-12
 HO2             3.3542-9
 *H2             3.4093-1
 HCHO,formaldehy 6.1576-7
 HCOOH           5.3805-7
 H2O             3.2336-1
 H2O2            6.3346-9
 *O              1.9428-6
 *OH             4.6103-4
 *O2             7.6197-7
 O3              7.048-16

  * THERMODYNAMIC PROPERTIES FITTED TO 20000.K









         THERMODYNAMIC EQUILIBRIUM COMBUSTION PROPERTIES AT ASSIGNED

                                     VOLUME

 CASE =                

             REACTANT                       MOLES         ENERGY      TEMP
                                                         KJ/KG-MOL      K
 FUEL        CH3OH                        1.0000000   -203352.771    300.000
 OXIDANT     O2                           1.5000000     -2439.995    300.000

 O/F=    0.53499  %FUEL= 65.146819  R,EQ.RATIO= 1.931034  PHI,EQ.RATIO= 2.800000

 THERMODYNAMIC PROPERTIES

 P, BAR            15.156
 T, K             2325.06
 RHO, KG/CU M    1.2841 0
 H, KJ/KG        -2980.80
 U, KJ/KG        -4161.10
 G, KJ/KG        -35907.5
 S, KJ/(KG)(K)    14.1617

 M, (1/n)          16.379
 (dLV/dLP)t      -1.00049
 (dLV/dLT)p        1.0120
 Cp, KJ/(KG)(K)    2.7770
 GAMMAs            1.2296
 SON VEL,M/SEC     1204.7

 MOLE FRACTIONS

 *C              1.590-13
 *CH             6.962-13
 CH2             5.632-11
 CH3             6.7473-9
 CH2OH           1.093-10
 CH3O            1.514-11
 CH4             7.6673-8
 CH3OH           1.987-10
 *CO             2.8822-1
 *CO2            4.4783-2
 COOH            2.0482-7
 C2H             1.488-14
 C2H2,acetylene  6.441-11
 C2H2,vinylidene 2.652-14
 CH2CO,ketene    2.833-10
 O(CH)2O         1.887-13
 HO(CO)2OH       3.277-15
 C2H3,vinyl      1.844-14
 CH3CO,acetyl    1.705-13
 C2H4            4.970-13
 CH3CHO,ethanal  7.628-14
 CH3COOH         1.170-14
 C2H5            2.408-16
 C2H6            4.224-16
 C2O             3.362-12
 C3O2            3.042-13
 *H              1.6830-3
 HCO             1.3679-6
 HCCO            3.259-12
 HO2             1.2811-9
 *H2             3.5330-1
 HCHO,formaldehy 6.2906-7
 HCOOH           5.1381-7
 H2O             3.1173-1
 H2O2            3.1181-9
 *O              7.9687-7
 *OH             2.7478-4
 *O2             2.9279-7
 O3              1.289-16

  * THERMODYNAMIC PROPERTIES FITTED TO 20000.K









         THERMODYNAMIC EQUILIBRIUM COMBUSTION PROPERTIES AT ASSIGNED

                                     VOLUME

 CASE =                

             REACTANT                       MOLES         ENERGY      TEMP
                                                         KJ/KG-MOL      K
 FUEL        CH3OH                        1.0000000   -203352.771    300.000
 OXIDANT     O2                           1.5000000     -2439.995    300.000

 O/F=    0.51655  %FUEL= 65.939300  R,EQ.RATIO= 1.966102  PHI,EQ.RATIO= 2.900000

 THERMODYNAMIC PROPERTIES

 P, BAR            14.846
 T, K             2250.77
 RHO, KG/CU M    1.2841 0
 H, KJ/KG        -3054.67
 U, KJ/KG        -4210.79
 G, KJ/KG        -35004.7
 S, KJ/(KG)(K)    14.1952

 M, (1/n)          16.187
 (dLV/dLP)t      -1.00034
 (dLV/dLT)p        1.0084
 Cp, KJ/(KG)(K)    2.7406
 GAMMAs            1.2349
 SON VEL,M/SEC     1194.9

 MOLE FRACTIONS

 *C              6.295-14
 *CH             3.427-13
 CH2             4.005-11
 CH3             7.3499-9
 CH2OH           9.594-11
 CH3O            1.234-11
 CH4             1.2188-7
 CH3OH           2.411-10
 *CO             2.8932-1
 *CO2            4.3787-2
 COOH            1.4861-7
 C2H             1.017-14
 C2H2,acetylene  7.912-11
 C2H2,vinylidene 2.408-14
 CH2CO,ketene    3.413-10
 O(CH)2O         1.799-13
 HO(CO)2OH       2.760-15
 C2H3,vinyl      2.051-14
 CH3CO,acetyl    1.924-13
 C2H4            8.470-13
 CH3CHO,ethanal  1.144-13
 CH3COOH         1.640-14
 C2H5            3.701-16
 C2H6            9.227-16
 C2O             2.220-12
 C3O2            3.080-13
 *H              1.1712-3
 HCO             1.0659-6
 HCCO            2.643-12
 HO2             4.789-10
 *H2             3.6491-1
 HCHO,formaldehy 6.3996-7
 HCOOH           4.9091-7
 H2O             3.0065-1
 H2O2            1.5116-9
 *O              3.1939-7
 *OH             1.6160-4
 *O2             1.1036-7

  * THERMODYNAMIC PROPERTIES FITTED TO 20000.K









         THERMODYNAMIC EQUILIBRIUM COMBUSTION PROPERTIES AT ASSIGNED

                                     VOLUME

 CASE =                

             REACTANT                       MOLES         ENERGY      TEMP
                                                         KJ/KG-MOL      K
 FUEL        CH3OH                        1.0000000   -203352.771    300.000
 OXIDANT     O2                           1.5000000     -2439.995    300.000

 O/F=    0.49933  %FUEL= 66.696544  R,EQ.RATIO= 2.000000  PHI,EQ.RATIO= 3.000000

 THERMODYNAMIC PROPERTIES

 P, BAR            14.535
 T, K             2179.06
 RHO, KG/CU M    1.2841 0
 H, KJ/KG        -3126.38
 U, KJ/KG        -4258.27
 G, KJ/KG        -34122.3
 S, KJ/(KG)(K)    14.2245

 M, (1/n)          16.007
 (dLV/dLP)t      -1.00023
 (dLV/dLT)p        1.0058
 Cp, KJ/(KG)(K)    2.7141
 GAMMAs            1.2397
 SON VEL,M/SEC     1184.6

 MOLE FRACTIONS

 *C              2.411-14
 *CH             1.639-13
 CH2             2.792-11
 CH3             7.9372-9
 CH2OH           8.339-11
 CH3O            9.951-12
 CH4             1.9420-7
 CH3OH           2.923-10
 *CO             2.9018-1
 *CO2            4.3004-2
 COOH            1.0715-7
 C2H             6.785-15
 C2H2,acetylene  9.638-11
 C2H2,vinylidene 2.146-14
 CH2CO,ketene    4.097-10
 O(CH)2O         1.706-13
 HO(CO)2OH       2.332-15
 C2H3,vinyl      2.250-14
 CH3CO,acetyl    2.157-13
 C2H4            1.441-12
 CH3CHO,ethanal  1.715-13
 CH3COOH         2.309-14
 OHCH2COOH       1.048-16
 C2H5            5.649-16
 C2H6            2.021-15
 C2O             1.439-12
 C3O2            3.102-13
 *H              8.0497-4
 HCO             8.2231-7
 HCCO            2.114-12
 HO2             1.754-10
 *H2             3.7583-1
 HCHO,formaldehy 6.4883-7
 HCOOH           4.6948-7
 H2O             2.9009-1
 H2O2            7.224-10
 *O              1.2526-7
 *OH             9.3856-5
 *O2             4.0838-8

  * THERMODYNAMIC PROPERTIES FITTED TO 20000.K









         THERMODYNAMIC EQUILIBRIUM COMBUSTION PROPERTIES AT ASSIGNED

                                     VOLUME

 CASE =                

             REACTANT                       MOLES         ENERGY      TEMP
                                                         KJ/KG-MOL      K
 FUEL        CH3OH                        1.0000000   -203352.771    300.000
 OXIDANT     O2                           1.5000000     -2439.995    300.000

 O/F=    0.48322  %FUEL= 67.420849  R,EQ.RATIO= 2.032787  PHI,EQ.RATIO= 3.100000

 THERMODYNAMIC PROPERTIES

 P, BAR            14.225
 T, K             2110.00
 RHO, KG/CU M    1.2841 0
 H, KJ/KG        -3195.93
 U, KJ/KG        -4303.69
 G, KJ/KG        -33263.1
 S, KJ/(KG)(K)    14.2499

 M, (1/n)          15.837
 (dLV/dLP)t      -1.00015
 (dLV/dLT)p        1.0040
 Cp, KJ/(KG)(K)    2.6951
 GAMMAs            1.2441
 SON VEL,M/SEC     1173.9

 MOLE FRACTIONS

 *C              8.945-15
 *CH             7.634-14
 CH2             1.912-11
 CH3             8.5081-9
 CH2OH           7.184-11
 CH3O            7.945-12
 CH4             3.1045-7
 CH3OH           3.543-10
 *CO             2.9082-1
 *CO2            4.2410-2
 COOH            7.6810-8
 C2H             4.427-15
 C2H2,acetylene  1.166-10
 C2H2,vinylidene 1.882-14
 CH2CO,ketene    4.905-10
 O(CH)2O         1.612-13
 HO(CO)2OH       1.977-15
 C2H3,vinyl      2.440-14
 CH3CO,acetyl    2.405-13
 C2H4            2.449-12
 CH3CHO,ethanal  2.575-13
 CH3COOH         3.267-14
 OHCH2COOH       1.130-16
 C2H5            8.580-16
 C2H6            4.444-15
 C2O             9.174-13
 C3O2            3.111-13
 *H              5.4692-4
 HCO             6.2854-7
 HCCO            1.669-12
 HO2             6.302-11
 *H2             3.8614-1
 HCHO,formaldehy 6.5599-7
 HCOOH           4.4952-7
 H2O             2.8002-1
 H2O2            3.406-10
 *O              4.8109-8
 *OH             5.3862-5
 *O2             1.4845-8

  * THERMODYNAMIC PROPERTIES FITTED TO 20000.K









         THERMODYNAMIC EQUILIBRIUM COMBUSTION PROPERTIES AT ASSIGNED

                                     VOLUME

 CASE =                

             REACTANT                       MOLES         ENERGY      TEMP
                                                         KJ/KG-MOL      K
 FUEL        CH3OH                        1.0000000   -203352.771    300.000
 OXIDANT     O2                           1.5000000     -2439.995    300.000

 O/F=    0.46812  %FUEL= 68.114320  R,EQ.RATIO= 2.064516  PHI,EQ.RATIO= 3.200000

 THERMODYNAMIC PROPERTIES

 P, BAR            13.917
 T, K             2043.57
 RHO, KG/CU M    1.2841 0
 H, KJ/KG        -3263.36
 U, KJ/KG        -4347.17
 G, KJ/KG        -32428.6
 S, KJ/(KG)(K)    14.2717

 M, (1/n)          15.677
 (dLV/dLP)t      -1.00010
 (dLV/dLT)p        1.0027
 Cp, KJ/(KG)(K)    2.6817
 GAMMAs            1.2480
 SON VEL,M/SEC     1163.0

 MOLE FRACTIONS

 *C              3.222-15
 *CH             3.467-14
 CH2             1.287-11
 CH3             9.0621-9
 CH2OH           6.142-11
 CH3O            6.288-12
 CH4             4.9830-7
 CH3OH           4.295-10
 *CO             2.9128-1
 *CO2            4.1986-2
 COOH            5.4759-8
 C2H             2.830-15
 C2H2,acetylene  1.402-10
 C2H2,vinylidene 1.626-14
 CH2CO,ketene    5.860-10
 O(CH)2O         1.518-13
 HO(CO)2OH       1.682-15
 C2H3,vinyl      2.619-14
 CH3CO,acetyl    2.670-13
 C2H4            4.166-12
 CH3CHO,ethanal  3.872-13
 CH3COOH         4.648-14
 OHCH2COOH       1.223-16
 C2H5            1.299-15
 C2H6            9.825-15
 C2O             5.756-13
 C3O2            3.108-13
 *H              3.6754-4
 HCO             4.7631-7
 HCCO            1.303-12
 HO2             2.221-11
 *H2             3.9591-1
 HCHO,formaldehy 6.6172-7
 HCOOH           4.3104-7
 H2O             2.7042-1
 H2O2            1.585-10
 *O              1.8109-8
 *OH             3.0554-5
 *O2             5.3022-9

  * THERMODYNAMIC PROPERTIES FITTED TO 20000.K









         THERMODYNAMIC EQUILIBRIUM COMBUSTION PROPERTIES AT ASSIGNED

                                     VOLUME

 CASE =                

             REACTANT                       MOLES         ENERGY      TEMP
                                                         KJ/KG-MOL      K
 FUEL        CH3OH                        1.0000000   -203352.771    300.000
 OXIDANT     O2                           1.5000000     -2439.995    300.000

 O/F=    0.45393  %FUEL= 68.778884  R,EQ.RATIO= 2.095238  PHI,EQ.RATIO= 3.300000

 THERMODYNAMIC PROPERTIES

 P, BAR            13.613
 T, K             1979.75
 RHO, KG/CU M    1.2841 0
 H, KJ/KG        -3328.70
 U, KJ/KG        -4388.84
 G, KJ/KG        -31619.6
 S, KJ/(KG)(K)    14.2902

 M, (1/n)          15.527
 (dLV/dLP)t      -1.00007
 (dLV/dLT)p        1.0018
 Cp, KJ/(KG)(K)    2.6726
 GAMMAs            1.2516
 SON VEL,M/SEC     1151.9

 MOLE FRACTIONS

 *C              1.128-15
 *CH             1.537-14
 CH2             8.530-12
 CH3             9.5992-9
 CH2OH           5.213-11
 CH3O            4.937-12
 CH4             8.0357-7
 CH3OH           5.211-10
 *CO             2.9157-1
 *CO2            4.1717-2
 COOH            3.8832-8
 C2H             1.775-15
 C2H2,acetylene  1.678-10
 C2H2,vinylidene 1.386-14
 CH2CO,ketene    6.993-10
 O(CH)2O         1.426-13
 HO(CO)2OH       1.436-15
 C2H3,vinyl      2.788-14
 CH3CO,acetyl    2.955-13
 C2H4            7.099-12
 CH3CHO,ethanal  5.841-13
 CH3COOH         6.655-14
 OHCH2COOH       1.328-16
 C2H5            1.963-15
 C2H6            2.187-14
 C2O             3.558-13
 C3O2            3.097-13
 *H              2.4442-4
 HCO             3.5800-7
 HCCO            1.006-12
 HO2             7.684-12
 *H2             4.0519-1
 HCHO,formaldehy 6.6624-7
 HCOOH           4.1398-7
 H2O             2.6126-1
 H2O2            7.277-11
 *O              6.6828-9
 *OH             1.7136-5
 *O2             1.8610-9

  * THERMODYNAMIC PROPERTIES FITTED TO 20000.K









         THERMODYNAMIC EQUILIBRIUM COMBUSTION PROPERTIES AT ASSIGNED

                                     VOLUME

 CASE =                

             REACTANT                       MOLES         ENERGY      TEMP
                                                         KJ/KG-MOL      K
 FUEL        CH3OH                        1.0000000   -203352.771    300.000
 OXIDANT     O2                           1.5000000     -2439.995    300.000

 O/F=    0.44058  %FUEL= 69.416312  R,EQ.RATIO= 2.125000  PHI,EQ.RATIO= 3.400000

 THERMODYNAMIC PROPERTIES

 P, BAR            13.313
 T, K             1918.45
 RHO, KG/CU M    1.2841 0
 H, KJ/KG        -3392.03
 U, KJ/KG        -4428.81
 G, KJ/KG        -30836.4
 S, KJ/(KG)(K)    14.3055

 M, (1/n)          15.385
 (dLV/dLP)t      -1.00005
 (dLV/dLT)p        1.0013
 Cp, KJ/(KG)(K)    2.6666
 GAMMAs            1.2549
 SON VEL,M/SEC     1140.6

 MOLE FRACTIONS

 *C              3.838-16
 *CH             6.658-15
 CH2             5.569-12
 CH3             1.0119-8
 CH2OH           4.396-11
 CH3O            3.847-12
 CH4             1.3028-6
 CH3OH           6.332-10
 *CO             2.9171-1
 *CO2            4.1591-2
 COOH            2.7392-8
 C2H             1.093-15
 C2H2,acetylene  2.000-10
 C2H2,vinylidene 1.167-14
 CH2CO,ketene    8.342-10
 O(CH)2O         1.337-13
 HO(CO)2OH       1.230-15
 C2H3,vinyl      2.945-14
 CH3CO,acetyl    3.261-13
 C2H4            1.214-11
 CH3CHO,ethanal  8.844-13
 CH3COOH         9.594-14
 OHCH2COOH       1.450-16
 C2H5            2.966-15
 C2H6            4.907-14
 C2H5OH          1.553-16
 C2O             2.169-13
 C3O2            3.078-13
 *H              1.6089-4
 HCO             2.6698-7
 HCCO            7.691-13
 HO2             2.609-12
 *H2             4.1403-1
 HCHO,formaldehy 6.6974-7
 HCOOH           3.9827-7
 H2O             2.5249-1
 H2O2            3.299-11
 *O              2.4181-9
 *OH             9.5032-6
 *O2             6.418-10

  * THERMODYNAMIC PROPERTIES FITTED TO 20000.K









         THERMODYNAMIC EQUILIBRIUM COMBUSTION PROPERTIES AT ASSIGNED

                                     VOLUME

 CASE =                

             REACTANT                       MOLES         ENERGY      TEMP
                                                         KJ/KG-MOL      K
 FUEL        CH3OH                        1.0000000   -203352.771    300.000
 OXIDANT     O2                           1.5000000     -2439.995    300.000

 O/F=    0.42800  %FUEL= 70.028233  R,EQ.RATIO= 2.153846  PHI,EQ.RATIO= 3.500000

 THERMODYNAMIC PROPERTIES

 P, BAR            13.018
 T, K             1859.58
 RHO, KG/CU M    1.2841 0
 H, KJ/KG        -3453.38
 U, KJ/KG        -4467.18
 G, KJ/KG        -30078.7
 S, KJ/(KG)(K)    14.3180

 M, (1/n)          15.251
 (dLV/dLP)t      -1.00004
 (dLV/dLT)p        1.0009
 Cp, KJ/(KG)(K)    2.6630
 GAMMAs            1.2579
 SON VEL,M/SEC     1129.3

 MOLE FRACTIONS

 *C              1.271-16
 *CH             2.819-15
 CH2             3.584-12
 CH3             1.0623-8
 CH2OH           3.685-11
 CH3O            2.977-12
 CH4             2.1247-6
 CH3OH           7.709-10
 *CO             2.9172-1
 *CO2            4.1598-2
 COOH            1.9221-8
 C2H             6.617-16
 C2H2,acetylene  2.377-10
 C2H2,vinylidene 9.717-15
 CH2CO,ketene    9.951-10
 O(CH)2O         1.251-13
 HO(CO)2OH       1.057-15
 C2H3,vinyl      3.089-14
 CH3CO,acetyl    3.592-13
 C2H4            2.082-11
 CH3CHO,ethanal  1.345-12
 CH3COOH         1.393-13
 OHCH2COOH       1.590-16
 C2H5            4.481-15
 C2H6            1.111-13
 C2H5OH          2.712-16
 C2O             1.304-13
 C3H4,propyne    1.554-16
 C3O2            3.054-13
 *H              1.0485-4
 HCO             1.9759-7
 HCCO            5.825-13
 HO2             8.689-13
 *H2             4.2247-1
 HCHO,formaldehy 6.7241-7
 HCOOH           3.8383-7
 H2O             2.4410-1
 H2O2            1.476-11
 *O              8.579-10
 *OH             5.2107-6
 *O2             2.174-10

  * THERMODYNAMIC PROPERTIES FITTED TO 20000.K









         THERMODYNAMIC EQUILIBRIUM COMBUSTION PROPERTIES AT ASSIGNED

                                     VOLUME

 CASE =                

             REACTANT                       MOLES         ENERGY      TEMP
                                                         KJ/KG-MOL      K
 FUEL        CH3OH                        1.0000000   -203352.771    300.000
 OXIDANT     O2                           1.5000000     -2439.995    300.000

 O/F=    0.41611  %FUEL= 70.616147  R,EQ.RATIO= 2.181818  PHI,EQ.RATIO= 3.600000

 THERMODYNAMIC PROPERTIES

 P, BAR            12.728
 T, K             1803.04
 RHO, KG/CU M    1.2841 0
 H, KJ/KG        -3512.84
 U, KJ/KG        -4504.04
 G, KJ/KG        -29346.2
 S, KJ/(KG)(K)    14.3277

 M, (1/n)          15.124
 (dLV/dLP)t      -1.00003
 (dLV/dLT)p        1.0006
 Cp, KJ/(KG)(K)    2.6613
 GAMMAs            1.2607
 SON VEL,M/SEC     1117.9

 MOLE FRACTIONS

 *CH             1.168-15
 CH2             2.274-12
 CH3             1.1112-8
 CH2OH           3.070-11
 CH3O            2.289-12
 CH4             3.4876-6
 CH3OH           9.406-10
 *CO             2.9159-1
 *CO2            4.1731-2
 COOH            1.3416-8
 C2H             3.940-16
 C2H2,acetylene  2.819-10
 C2H2,vinylidene 8.001-15
 CH2CO,ketene    1.1876-9
 O(CH)2O         1.168-13
 HO(CO)2OH       9.110-16
 C2H3,vinyl      3.222-14
 CH3CO,acetyl    3.952-13
 C2H4            3.590-11
 CH3CHO,ethanal  2.056-12
 CH3COOH         2.039-13
 OHCH2COOH       1.753-16
 C2H5            6.780-15
 C2H6            2.541-13
 C2H5OH          4.774-16
 C2O             7.732-14
 C3H3,2-propynl  1.028-16
 C3H4,allene     1.065-16
 C3H4,propyne    2.754-16
 C3O2            3.025-13
 *H              6.7652-5
 HCO             1.4514-7
 HCCO            4.372-13
 HO2             2.839-13
 *H2             4.3057-1
 HCHO,formaldehy 6.7435-7
 HCOOH           3.7060-7
 H2O             2.3604-1
 H2O2            6.515-12
 *O              2.983-10
 *OH             2.8245-6
 *O2             7.230-11

  * THERMODYNAMIC PROPERTIES FITTED TO 20000.K



