
 *******************************************************************************

         NASA-GLENN CHEMICAL EQUILIBRIUM PROGRAM CEA2, MAY 21, 2004
                   BY  BONNIE MCBRIDE AND SANFORD GORDON
      REFS: NASA RP-1311, PART I, 1994 AND NASA RP-1311, PART II, 1996

 *******************************************************************************



 problem    phi,eq.ratio=0.5,0.6,0.7,0.8,0.9,1,1.1,1.2,1.3,1.4,1.5,1.6,1.7,1.8,1.
 9,2,
       uv   rho,kg/m**3=1.2841,  t,k=3800
 react
   fuel=CH3OH moles=1 t,k=300
   oxid=O2 moles=1.5 t,k=300
 output
      trace=1e-16 siunits short
 end




         THERMODYNAMIC EQUILIBRIUM COMBUSTION PROPERTIES AT ASSIGNED

                                     VOLUME

 CASE =                

             REACTANT                       MOLES         ENERGY      TEMP
                                                         KJ/KG-MOL      K
 FUEL        CH3OH                        1.0000000   -203352.771    300.000
 OXIDANT     O2                           1.5000000     -2439.995    300.000

 O/F=    2.99597  %FUEL= 25.025223  R,EQ.RATIO= 0.571429  PHI,EQ.RATIO= 0.500000

 THERMODYNAMIC PROPERTIES

 P, BAR            12.834
 T, K             3168.19
 RHO, KG/CU M    1.2841 0
 H, KJ/KG         -645.97
 U, KJ/KG        -1645.39
 G, KJ/KG        -34369.2
 S, KJ/(KG)(K)    10.6443

 M, (1/n)          26.357
 (dLV/dLP)t      -1.03000
 (dLV/dLT)p        1.6105
 Cp, KJ/(KG)(K)    5.8097
 GAMMAs            1.1247
 SON VEL,M/SEC     1060.2

 MOLE FRACTIONS

 *C              2.862-12
 *CH             4.118-13
 CH2             3.200-13
 CH3             2.362-13
 CH2OH           3.649-13
 CH3O            9.587-14
 CH4             2.621-14
 CH3OH           9.521-15
 *CO             4.7414-2
 *CO2            1.5844-1
 COOH            1.5177-6
 CH2CO,ketene    2.942-15
 O(CH)2O         2.218-16
 HO(CO)2OH       3.118-15
 C2O             1.236-13
 *H              8.3838-3
 HCO             3.3011-7
 HCCO            4.287-15
 HO2             2.7106-4
 *H2             1.3551-2
 HCHO,formaldehy 3.4185-9
 HCOOH           8.0509-8
 H2O             3.4998-1
 H2O2            1.5356-5
 *O              3.0088-2
 *OH             8.7673-2
 *O2             3.0419-1
 O3              1.1676-6

  * THERMODYNAMIC PROPERTIES FITTED TO 20000.K









         THERMODYNAMIC EQUILIBRIUM COMBUSTION PROPERTIES AT ASSIGNED

                                     VOLUME

 CASE =                

             REACTANT                       MOLES         ENERGY      TEMP
                                                         KJ/KG-MOL      K
 FUEL        CH3OH                        1.0000000   -203352.771    300.000
 OXIDANT     O2                           1.5000000     -2439.995    300.000

 O/F=    2.49664  %FUEL= 28.598881  R,EQ.RATIO= 0.666667  PHI,EQ.RATIO= 0.600000

 THERMODYNAMIC PROPERTIES

 P, BAR            13.642
 T, K             3244.91
 RHO, KG/CU M    1.2841 0
 H, KJ/KG         -807.12
 U, KJ/KG        -1869.47
 G, KJ/KG        -36615.9
 S, KJ/(KG)(K)    11.0354

 M, (1/n)          25.396
 (dLV/dLP)t      -1.03750
 (dLV/dLT)p        1.7406
 Cp, KJ/(KG)(K)    6.7712
 GAMMAs            1.1223
 SON VEL,M/SEC     1091.9

 MOLE FRACTIONS

 *C              9.584-12
 *CH             1.560-12
 CH2             1.263-12
 CH3             9.465-13
 CH2OH           1.136-12
 CH3O            3.123-13
 CH4             1.106-13
 CH3OH           3.185-14
 *CO             6.7401-2
 *CO2            1.5927-1
 COOH            2.2618-6
 C2H2,acetylene  2.203-16
 CH2CO,ketene    1.329-14
 O(CH)2O         7.884-16
 HO(CO)2OH       5.742-15
 C2O             4.764-13
 C3O2            2.101-16
 *H              1.2252-2
 HCO             6.8014-7
 HCCO            1.877-14
 HO2             2.6472-4
 *H2             2.0347-2
 HCHO,formaldehy 7.7837-9
 HCOOH           1.3207-7
 H2O             3.7827-1
 H2O2            1.6580-5
 *O              3.2171-2
 *OH             9.6903-2
 *O2             2.3309-1
 O3              9.4652-7

  * THERMODYNAMIC PROPERTIES FITTED TO 20000.K









         THERMODYNAMIC EQUILIBRIUM COMBUSTION PROPERTIES AT ASSIGNED

                                     VOLUME

 CASE =                

             REACTANT                       MOLES         ENERGY      TEMP
                                                         KJ/KG-MOL      K
 FUEL        CH3OH                        1.0000000   -203352.771    300.000
 OXIDANT     O2                           1.5000000     -2439.995    300.000

 O/F=    2.13998  %FUEL= 31.847363  R,EQ.RATIO= 0.756757  PHI,EQ.RATIO= 0.700000

 THERMODYNAMIC PROPERTIES

 P, BAR            14.340
 T, K             3298.07
 RHO, KG/CU M    1.2841 0
 H, KJ/KG         -956.39
 U, KJ/KG        -2073.15
 G, KJ/KG        -38490.7
 S, KJ/(KG)(K)    11.3807

 M, (1/n)          24.555
 (dLV/dLP)t      -1.04347
 (dLV/dLT)p        1.8405
 Cp, KJ/(KG)(K)    7.5668
 GAMMAs            1.1212
 SON VEL,M/SEC     1119.0

 MOLE FRACTIONS

 *C              2.294-11
 *CH             4.180-12
 CH2             3.585-12
 CH3             2.796-12
 CH2OH           2.714-12
 CH3O            7.692-13
 CH4             3.487-13
 CH3OH           8.232-14
 *CO             8.7285-2
 *CO2            1.5677-1
 COOH            2.9818-6
 C2H             1.382-16
 C2H2,acetylene  9.368-16
 CH2CO,ketene    4.268-14
 O(CH)2O         2.066-15
 HO(CO)2OH       8.898-15
 C2O             1.295-12
 C3O2            6.688-16
 *H              1.6106-2
 HCO             1.1623-6
 HCCO            5.729-14
 HO2             2.4370-4
 *H2             2.8069-2
 HCHO,formaldehy 1.4655-8
 HCOOH           1.9134-7
 H2O             4.0124-1
 H2O2            1.6819-5
 *O              3.1892-2
 *OH             1.0121-1
 *O2             1.7716-1
 O3              7.1565-7

  * THERMODYNAMIC PROPERTIES FITTED TO 20000.K









         THERMODYNAMIC EQUILIBRIUM COMBUSTION PROPERTIES AT ASSIGNED

                                     VOLUME

 CASE =                

             REACTANT                       MOLES         ENERGY      TEMP
                                                         KJ/KG-MOL      K
 FUEL        CH3OH                        1.0000000   -203352.771    300.000
 OXIDANT     O2                           1.5000000     -2439.995    300.000

 O/F=    1.87248  %FUEL= 34.813120  R,EQ.RATIO= 0.842105  PHI,EQ.RATIO= 0.800000

 THERMODYNAMIC PROPERTIES

 P, BAR            14.951
 T, K             3334.55
 RHO, KG/CU M    1.2841 0
 H, KJ/KG        -1094.77
 U, KJ/KG        -2259.11
 G, KJ/KG        -40068.8
 S, KJ/(KG)(K)    11.6879

 M, (1/n)          23.812
 (dLV/dLP)t      -1.04784
 (dLV/dLT)p        1.9112
 Cp, KJ/(KG)(K)    8.1963
 GAMMAs            1.1208
 SON VEL,M/SEC     1142.4

 MOLE FRACTIONS

 *C              4.430-11
 *CH             8.974-12
 CH2             8.248-12
 CH3             6.817-12
 CH2OH           5.476-12
 CH3O            1.584-12
 CH4             9.161-13
 CH3OH           1.805-13
 *CO             1.0663-1
 *CO2            1.5208-1
 COOH            3.6265-6
 C2H             4.435-16
 C2H2,acetylene  3.070-15
 CH2CO,ketene    1.105-13
 O(CH)2O         4.456-15
 HO(CO)2OH       1.229-14
 C2O             2.823-12
 C3O2            1.678-15
 *H              1.9775-2
 HCO             1.7623-6
 HCCO            1.391-13
 HO2             2.1457-4
 *H2             3.6706-2
 HCHO,formaldehy 2.4451-8
 HCOOH           2.5561-7
 H2O             4.1989-1
 H2O2            1.6295-5
 *O              2.9991-2
 *OH             1.0164-1
 *O2             1.3305-1
 O3              5.1119-7

  * THERMODYNAMIC PROPERTIES FITTED TO 20000.K









         THERMODYNAMIC EQUILIBRIUM COMBUSTION PROPERTIES AT ASSIGNED

                                     VOLUME

 CASE =                

             REACTANT                       MOLES         ENERGY      TEMP
                                                         KJ/KG-MOL      K
 FUEL        CH3OH                        1.0000000   -203352.771    300.000
 OXIDANT     O2                           1.5000000     -2439.995    300.000

 O/F=    1.66443  %FUEL= 37.531523  R,EQ.RATIO= 0.923077  PHI,EQ.RATIO= 0.900000

 THERMODYNAMIC PROPERTIES

 P, BAR            15.487
 T, K             3358.07
 RHO, KG/CU M    1.2841 0
 H, KJ/KG        -1223.49
 U, KJ/KG        -2429.56
 G, KJ/KG        -41395.3
 S, KJ/(KG)(K)    11.9628

 M, (1/n)          23.150
 (dLV/dLP)t      -1.05054
 (dLV/dLT)p        1.9528
 Cp, KJ/(KG)(K)    8.6506
 GAMMAs            1.1208
 SON VEL,M/SEC     1162.7

 MOLE FRACTIONS

 *C              7.353-11
 *CH             1.651-11
 CH2             1.643-11
 CH3             1.459-11
 CH2OH           9.832-12
 CH3O            2.882-12
 CH4             2.131-12
 CH3OH           3.541-13
 *CO             1.2522-1
 *CO2            1.4594-1
 COOH            4.1608-6
 C2H             1.162-15
 C2H2,acetylene  8.444-15
 CH2CO,ketene    2.477-13
 O(CH)2O         8.407-15
 HO(CO)2OH       1.564-14
 CH3CO,acetyl    1.102-16
 C2O             5.281-12
 C3O2            3.584-15
 *H              2.3131-2
 HCO             2.4591-6
 HCCO            2.886-13
 HO2             1.8173-4
 *H2             4.6303-2
 HCHO,formaldehy 3.7565-8
 HCOOH           3.2254-7
 H2O             4.3487-1
 H2O2            1.5195-5
 *O              2.7032-2
 *OH             9.8966-2
 *O2             9.8340-2
 O3              3.4611-7

  * THERMODYNAMIC PROPERTIES FITTED TO 20000.K









         THERMODYNAMIC EQUILIBRIUM COMBUSTION PROPERTIES AT ASSIGNED

                                     VOLUME

 CASE =                

             REACTANT                       MOLES         ENERGY      TEMP
                                                         KJ/KG-MOL      K
 FUEL        CH3OH                        1.0000000   -203352.771    300.000
 OXIDANT     O2                           1.5000000     -2439.995    300.000

 O/F=    1.49798  %FUEL= 40.032279  R,EQ.RATIO= 1.000000  PHI,EQ.RATIO= 1.000000

 THERMODYNAMIC PROPERTIES

 P, BAR            15.956
 T, K             3370.60
 RHO, KG/CU M    1.2841 0
 H, KJ/KG        -1343.82
 U, KJ/KG        -2586.36
 G, KJ/KG        -42498.0
 S, KJ/(KG)(K)    12.2097

 M, (1/n)          22.554
 (dLV/dLP)t      -1.05144
 (dLV/dLT)p        1.9637
 Cp, KJ/(KG)(K)    8.9110
 GAMMAs            1.1212
 SON VEL,M/SEC     1180.3

 MOLE FRACTIONS

 *C              1.087-10
 *CH             2.703-11
 CH2             2.942-11
 CH3             2.849-11
 CH2OH           1.621-11
 CH3O            4.783-12
 CH4             4.559-12
 CH3OH           6.416-13
 *CO             1.4298-1
 *CO2            1.3880-1
 COOH            4.5615-6
 *C2             1.549-16
 C2H             2.625-15
 C2H2,acetylene  2.053-14
 C2H2,vinylidene 1.378-16
 CH2CO,ketene    5.010-13
 O(CH)2O         1.439-14
 HO(CO)2OH       1.867-14
 CH3CO,acetyl    2.525-16
 C2O             8.824-12
 C3O2            6.812-15
 *H              2.6060-2
 HCO             3.2257-6
 HCCO            5.344-13
 HO2             1.4828-4
 *H2             5.6945-2
 HCHO,formaldehy 5.4379-8
 HCOOH           3.8999-7
 H2O             4.4661-1
 H2O2            1.3682-5
 *O              2.3449-2
 *OH             9.3792-2
 *O2             7.1190-2
 O3              2.2170-7

  * THERMODYNAMIC PROPERTIES FITTED TO 20000.K









         THERMODYNAMIC EQUILIBRIUM COMBUSTION PROPERTIES AT ASSIGNED

                                     VOLUME

 CASE =                

             REACTANT                       MOLES         ENERGY      TEMP
                                                         KJ/KG-MOL      K
 FUEL        CH3OH                        1.0000000   -203352.771    300.000
 OXIDANT     O2                           1.5000000     -2439.995    300.000

 O/F=    1.36180  %FUEL= 42.340519  R,EQ.RATIO= 1.073171  PHI,EQ.RATIO= 1.100000

 THERMODYNAMIC PROPERTIES

 P, BAR            16.361
 T, K             3373.15
 RHO, KG/CU M    1.2841 0
 H, KJ/KG        -1456.98
 U, KJ/KG        -2731.10
 G, KJ/KG        -43393.4
 S, KJ/(KG)(K)    12.4324

 M, (1/n)          22.012
 (dLV/dLP)t      -1.05043
 (dLV/dLT)p        1.9420
 Cp, KJ/(KG)(K)    8.9533
 GAMMAs            1.1219
 SON VEL,M/SEC     1195.6

 MOLE FRACTIONS

 *C              1.462-10
 *CH             4.031-11
 CH2             4.854-11
 CH3             5.194-11
 CH2OH           2.502-11
 CH3O            7.394-12
 CH4             9.199-12
 CH3OH           1.097-12
 CH3OOH          1.143-16
 *CO             1.5985-1
 *CO2            1.3101-1
 COOH            4.8132-6
 *C2             2.826-16
 C2H             5.290-15
 C2H2,acetylene  4.563-14
 C2H2,vinylidene 3.076-16
 CH2CO,ketene    9.397-13
 O(CH)2O         2.286-14
 HO(CO)2OH       2.116-14
 CH3CO,acetyl    5.275-16
 C2O             1.349-11
 C3O2            1.186-14
 *H              2.8452-2
 HCO             4.0290-6
 HCCO            9.062-13
 HO2             1.1639-4
 *H2             6.8742-2
 HCHO,formaldehy 7.5266-8
 HCOOH           4.5595-7
 H2O             4.5539-1
 H2O2            1.1900-5
 *O              1.9583-2
 *OH             8.6622-2
 *O2             5.0210-2
 O3              1.3364-7

  * THERMODYNAMIC PROPERTIES FITTED TO 20000.K









         THERMODYNAMIC EQUILIBRIUM COMBUSTION PROPERTIES AT ASSIGNED

                                     VOLUME

 CASE =                

             REACTANT                       MOLES         ENERGY      TEMP
                                                         KJ/KG-MOL      K
 FUEL        CH3OH                        1.0000000   -203352.771    300.000
 OXIDANT     O2                           1.5000000     -2439.995    300.000

 O/F=    1.24832  %FUEL= 44.477651  R,EQ.RATIO= 1.142857  PHI,EQ.RATIO= 1.200000

 THERMODYNAMIC PROPERTIES

 P, BAR            16.705
 T, K             3366.07
 RHO, KG/CU M    1.2841 0
 H, KJ/KG        -1564.18
 U, KJ/KG        -2865.10
 G, KJ/KG        -44090.0
 S, KJ/(KG)(K)    12.6337

 M, (1/n)          21.513
 (dLV/dLP)t      -1.04746
 (dLV/dLT)p        1.8870
 Cp, KJ/(KG)(K)    8.7583
 GAMMAs            1.1232
 SON VEL,M/SEC     1208.8

 MOLE FRACTIONS

 *C              1.808-10
 *CH             5.545-11
 CH2             7.480-11
 CH3             8.986-11
 CH2OH           3.661-11
 CH3O            1.078-11
 CH4             1.781-11
 CH3OH           1.793-12
 CH3OOH          1.552-16
 *CO             1.7581-1
 *CO2            1.2281-1
 COOH            4.9080-6
 *C2             4.617-16
 C2H             9.714-15
 C2H2,acetylene  9.472-14
 C2H2,vinylidene 6.304-16
 CH2CO,ketene    1.664-12
 O(CH)2O         3.419-14
 HO(CO)2OH       2.293-14
 CH3CO,acetyl    1.026-15
 C2O             1.916-11
 C3O2            1.928-14
 *H              3.0193-2
 HCO             4.8291-6
 HCCO            1.431-12
 HO2             8.7591-5
 *H2             8.1818-2
 HCHO,formaldehy 1.0056-7
 HCOOH           5.1844-7
 H2O             4.6133-1
 H2O2            9.9836-6
 *O              1.5713-2
 *OH             7.7917-2
 *O2             3.4303-2
 O3              7.5214-8

  * THERMODYNAMIC PROPERTIES FITTED TO 20000.K









         THERMODYNAMIC EQUILIBRIUM COMBUSTION PROPERTIES AT ASSIGNED

                                     VOLUME

 CASE =                

             REACTANT                       MOLES         ENERGY      TEMP
                                                         KJ/KG-MOL      K
 FUEL        CH3OH                        1.0000000   -203352.771    300.000
 OXIDANT     O2                           1.5000000     -2439.995    300.000

 O/F=    1.15230  %FUEL= 46.462021  R,EQ.RATIO= 1.209302  PHI,EQ.RATIO= 1.300000

 THERMODYNAMIC PROPERTIES

 P, BAR            16.988
 T, K             3349.31
 RHO, KG/CU M    1.2841 0
 H, KJ/KG        -1666.56
 U, KJ/KG        -2989.52
 G, KJ/KG        -44591.0
 S, KJ/(KG)(K)    12.8159

 M, (1/n)          21.050
 (dLV/dLP)t      -1.04272
 (dLV/dLT)p        1.8013
 Cp, KJ/(KG)(K)    8.3285
 GAMMAs            1.1251
 SON VEL,M/SEC     1220.0

 MOLE FRACTIONS

 *C              2.064-10
 *CH             7.079-11
 CH2             1.086-10
 CH3             1.490-10
 CH2OH           5.116-11
 CH3O            1.492-11
 CH4             3.349-11
 CH3OH           2.830-12
 CH3OOH          1.977-16
 *CO             1.9080-1
 *CO2            1.1442-1
 COOH            4.8454-6
 *C2             6.828-16
 C2H             1.645-14
 C2H2,acetylene  1.864-13
 C2H2,vinylidene 1.203-15
 CH2CO,ketene    2.817-12
 O(CH)2O         4.864-14
 HO(CO)2OH       2.387-14
 CH3CO,acetyl    1.884-15
 C2O             2.549-11
 C3O2            2.960-14
 *H              3.1168-2
 HCO             5.5783-6
 HCCO            2.127-12
 HO2             6.2911-5
 *H2             9.6284-2
 HCHO,formaldehy 1.3050-7
 HCOOH           5.7545-7
 H2O             4.6447-1
 H2O2            8.0557-6
 *O              1.2069-2
 *OH             6.8145-2
 *O2             2.2562-2
 O3              3.9162-8

  * THERMODYNAMIC PROPERTIES FITTED TO 20000.K









         THERMODYNAMIC EQUILIBRIUM COMBUSTION PROPERTIES AT ASSIGNED

                                     VOLUME

 CASE =                

             REACTANT                       MOLES         ENERGY      TEMP
                                                         KJ/KG-MOL      K
 FUEL        CH3OH                        1.0000000   -203352.771    300.000
 OXIDANT     O2                           1.5000000     -2439.995    300.000

 O/F=    1.06999  %FUEL= 48.309442  R,EQ.RATIO= 1.272727  PHI,EQ.RATIO= 1.400000

 THERMODYNAMIC PROPERTIES

 P, BAR            17.209
 T, K             3322.63
 RHO, KG/CU M    1.2841 0
 H, KJ/KG        -1765.22
 U, KJ/KG        -3105.36
 G, KJ/KG        -44896.6
 S, KJ/(KG)(K)    12.9811

 M, (1/n)          20.614
 (dLV/dLP)t      -1.03670
 (dLV/dLT)p        1.6928
 Cp, KJ/(KG)(K)    7.7036
 GAMMAs            1.1278
 SON VEL,M/SEC     1229.4

 MOLE FRACTIONS

 *C              2.177-10
 *CH             8.403-11
 CH2             1.490-10
 CH3             2.383-10
 CH2OH           6.857-11
 CH3O            1.971-11
 CH4             6.166-11
 CH3OH           4.340-12
 CH3OOH          2.369-16
 *CO             2.0476-1
 *CO2            1.0603-1
 COOH            4.6342-6
 *C2             9.175-16
 C2H             2.587-14
 C2H2,acetylene  3.508-13
 C2H2,vinylidene 2.156-15
 CH2CO,ketene    4.593-12
 O(CH)2O         6.619-14
 HO(CO)2OH       2.395-14
 C2H3,vinyl      1.551-16
 CH3CO,acetyl    3.293-15
 C2O             3.188-11
 C3O2            4.329-14
 *H              3.1280-2
 HCO             6.2233-6
 HCCO            2.992-12
 HO2             4.2907-5
 *H2             1.1220-1
 HCHO,formaldehy 1.6511-7
 HCOOH           6.2496-7
 H2O             4.6482-1
 H2O2            6.2308-6
 *O              8.8345-3
 *OH             5.7812-2
 *O2             1.4203-2
 O3              1.8684-8

  * THERMODYNAMIC PROPERTIES FITTED TO 20000.K









         THERMODYNAMIC EQUILIBRIUM COMBUSTION PROPERTIES AT ASSIGNED

                                     VOLUME

 CASE =                

             REACTANT                       MOLES         ENERGY      TEMP
                                                         KJ/KG-MOL      K
 FUEL        CH3OH                        1.0000000   -203352.771    300.000
 OXIDANT     O2                           1.5000000     -2439.995    300.000

 O/F=    0.99866  %FUEL= 50.033619  R,EQ.RATIO= 1.333333  PHI,EQ.RATIO= 1.500000

 THERMODYNAMIC PROPERTIES

 P, BAR            17.366
 T, K             3285.85
 RHO, KG/CU M    1.2841 0
 H, KJ/KG        -1861.12
 U, KJ/KG        -3213.47
 G, KJ/KG        -45007.5
 S, KJ/(KG)(K)    13.1310

 M, (1/n)          20.202
 (dLV/dLP)t      -1.03014
 (dLV/dLT)p        1.5741
 Cp, KJ/(KG)(K)    6.9612
 GAMMAs            1.1317
 SON VEL,M/SEC     1237.1

 MOLE FRACTIONS

 *C              2.115-10
 *CH             9.263-11
 CH2             1.934-10
 CH3             3.685-10
 CH2OH           8.829-11
 CH3O            2.485-11
 CH4             1.117-10
 CH3OH           6.487-12
 CH3OOH          2.672-16
 *CO             2.1761-1
 *CO2            9.7838-2
 COOH            4.2945-6
 *C2             1.120-15
 C2H             3.782-14
 C2H2,acetylene  6.345-13
 C2H2,vinylidene 3.640-15
 CH2CO,ketene    7.246-12
 O(CH)2O         8.642-14
 HO(CO)2OH       2.320-14
 C2H3,vinyl      2.955-16
 CH3CO,acetyl    5.502-15
 C2H4            1.283-16
 CH3CHO,ethanal  1.361-16
 C2O             3.756-11
 C3O2            6.059-14
 *H              3.0476-2
 HCO             6.7093-6
 HCCO            3.991-12
 HO2             2.7663-5
 *H2             1.2955-1
 HCHO,formaldehy 2.0407-7
 HCOOH           6.6513-7
 H2O             4.6237-1
 H2O2            4.6053-6
 *O              6.1372-3
 *OH             4.7463-2
 *O2             8.5175-3
 O3              8.1022-9

  * THERMODYNAMIC PROPERTIES FITTED TO 20000.K









         THERMODYNAMIC EQUILIBRIUM COMBUSTION PROPERTIES AT ASSIGNED

                                     VOLUME

 CASE =                

             REACTANT                       MOLES         ENERGY      TEMP
                                                         KJ/KG-MOL      K
 FUEL        CH3OH                        1.0000000   -203352.771    300.000
 OXIDANT     O2                           1.5000000     -2439.995    300.000

 O/F=    0.93624  %FUEL= 51.646487  R,EQ.RATIO= 1.391304  PHI,EQ.RATIO= 1.600000

 THERMODYNAMIC PROPERTIES

 P, BAR            17.458
 T, K             3239.10
 RHO, KG/CU M    1.2841 0
 H, KJ/KG        -1955.08
 U, KJ/KG        -3314.60
 G, KJ/KG        -44927.8
 S, KJ/(KG)(K)    13.2669

 M, (1/n)          19.810
 (dLV/dLP)t      -1.02381
 (dLV/dLT)p        1.4587
 Cp, KJ/(KG)(K)    6.1958
 GAMMAs            1.1368
 SON VEL,M/SEC     1243.2

 MOLE FRACTIONS

 *C              1.888-10
 *CH             9.462-11
 CH2             2.372-10
 CH3             5.514-10
 CH2OH           1.092-10
 CH3O            2.993-11
 CH4             1.993-10
 CH3OH           9.462-12
 CH3OOH          2.835-16
 *CO             2.2925-1
 *CO2            9.0041-2
 COOH            3.8571-6
 *C2             1.240-15
 C2H             5.142-14
 C2H2,acetylene  1.105-12
 C2H2,vinylidene 5.793-15
 CH2CO,ketene    1.109-11
 O(CH)2O         1.085-13
 HO(CO)2OH       2.177-14
 C2H3,vinyl      5.347-16
 CH3CO,acetyl    8.806-15
 C2H4            2.828-16
 CH3CHO,ethanal  2.546-16
 CH3COOH         1.396-16
 C2O             4.168-11
 C3O2            8.138-14
 *H              2.8781-2
 HCO             6.9900-6
 HCCO            5.055-12
 HO2             1.6814-5
 *H2             1.4815-1
 HCHO,formaldehy 2.4662-7
 HCOOH           6.9458-7
 H2O             4.5721-1
 H2O2            3.2467-6
 *O              4.0341-3
 *OH             3.7648-2
 *O2             4.8535-3
 O3              3.1793-9

  * THERMODYNAMIC PROPERTIES FITTED TO 20000.K









         THERMODYNAMIC EQUILIBRIUM COMBUSTION PROPERTIES AT ASSIGNED

                                     VOLUME

 CASE =                

             REACTANT                       MOLES         ENERGY      TEMP
                                                         KJ/KG-MOL      K
 FUEL        CH3OH                        1.0000000   -203352.771    300.000
 OXIDANT     O2                           1.5000000     -2439.995    300.000

 O/F=    0.88117  %FUEL= 53.158487  R,EQ.RATIO= 1.446809  PHI,EQ.RATIO= 1.700000

 THERMODYNAMIC PROPERTIES

 P, BAR            17.486
 T, K             3182.99
 RHO, KG/CU M    1.2841 0
 H, KJ/KG        -2047.67
 U, KJ/KG        -3409.41
 G, KJ/KG        -44668.2
 S, KJ/(KG)(K)    13.3901

 M, (1/n)          19.435
 (dLV/dLP)t      -1.01827
 (dLV/dLT)p        1.3565
 Cp, KJ/(KG)(K)    5.4869
 GAMMAs            1.1431
 SON VEL,M/SEC     1247.7

 MOLE FRACTIONS

 *C              1.546-10
 *CH             8.940-11
 CH2             2.746-10
 CH3             7.973-10
 CH2OH           1.298-10
 CH3O            3.440-11
 CH4             3.505-10
 CH3OH           1.347-11
 CH3OOH          2.830-16
 *CO             2.3961-1
 *CO2            8.2806-2
 COOH            3.3615-6
 *C2             1.242-15
 C2H             6.491-14
 C2H2,acetylene  1.852-12
 C2H2,vinylidene 8.680-15
 CH2CO,ketene    1.646-11
 O(CH)2O         1.311-13
 HO(CO)2OH       1.984-14
 C2H3,vinyl      9.175-16
 CH3CO,acetyl    1.350-14
 C2H4            6.054-16
 CH3CHO,ethanal  4.623-16
 CH3COOH         2.198-16
 C2O             4.358-11
 C3O2            1.051-13
 *H              2.6316-2
 HCO             7.0382-6
 HCCO            6.079-12
 HO2             9.6349-6
 *H2             1.6771-1
 HCHO,formaldehy 2.9152-7
 HCOOH           7.1267-7
 H2O             4.4955-1
 H2O2            2.1834-6
 *O              2.5072-3
 *OH             2.8841-2
 *O2             2.6285-3
 O3              1.1293-9

  * THERMODYNAMIC PROPERTIES FITTED TO 20000.K









         THERMODYNAMIC EQUILIBRIUM COMBUSTION PROPERTIES AT ASSIGNED

                                     VOLUME

 CASE =                

             REACTANT                       MOLES         ENERGY      TEMP
                                                         KJ/KG-MOL      K
 FUEL        CH3OH                        1.0000000   -203352.771    300.000
 OXIDANT     O2                           1.5000000     -2439.995    300.000

 O/F=    0.83221  %FUEL= 54.578794  R,EQ.RATIO= 1.500000  PHI,EQ.RATIO= 1.800000

 THERMODYNAMIC PROPERTIES

 P, BAR            17.454
 T, K             3118.65
 RHO, KG/CU M    1.2841 0
 H, KJ/KG        -2139.22
 U, KJ/KG        -3498.46
 G, KJ/KG        -44246.4
 S, KJ/(KG)(K)    13.5017

 M, (1/n)          19.077
 (dLV/dLP)t      -1.01376
 (dLV/dLT)p        1.2722
 Cp, KJ/(KG)(K)    4.8786
 GAMMAs            1.1505
 SON VEL,M/SEC     1250.5

 MOLE FRACTIONS

 *C              1.161-10
 *CH             7.815-11
 CH2             2.999-10
 CH3             1.1134-9
 CH2OH           1.482-10
 CH3O            3.778-11
 CH4             6.068-10
 CH3OH           1.872-11
 CH3OOH          2.663-16
 *CO             2.4868-1
 *CO2            7.6255-2
 COOH            2.8483-6
 *C2             1.127-15
 C2H             7.608-14
 C2H2,acetylene  2.984-12
 C2H2,vinylidene 1.224-14
 CH2CO,ketene    2.372-11
 O(CH)2O         1.527-13
 HO(CO)2OH       1.765-14
 C2H3,vinyl      1.492-15
 CH3CO,acetyl    1.985-14
 C2H4            1.257-15
 CH3CHO,ethanal  8.155-16
 CH3COOH         3.378-16
 C2O             4.297-11
 C3O2            1.309-13
 *H              2.3296-2
 HCO             6.8547-6
 HCCO            6.948-12
 HO2             5.2183-6
 *H2             1.8780-1
 HCHO,formaldehy 3.3722-7
 HCOOH           7.1969-7
 H2O             4.3975-1
 H2O2            1.4038-6
 *O              1.4758-3
 *OH             2.1363-2
 *O2             1.3567-3
 O3              3.650-10

  * THERMODYNAMIC PROPERTIES FITTED TO 20000.K









         THERMODYNAMIC EQUILIBRIUM COMBUSTION PROPERTIES AT ASSIGNED

                                     VOLUME

 CASE =                

             REACTANT                       MOLES         ENERGY      TEMP
                                                         KJ/KG-MOL      K
 FUEL        CH3OH                        1.0000000   -203352.771    300.000
 OXIDANT     O2                           1.5000000     -2439.995    300.000

 O/F=    0.78841  %FUEL= 55.915504  R,EQ.RATIO= 1.551020  PHI,EQ.RATIO= 1.900000

 THERMODYNAMIC PROPERTIES

 P, BAR            17.367
 T, K             3047.58
 RHO, KG/CU M    1.2841 0
 H, KJ/KG        -2229.82
 U, KJ/KG        -3582.28
 G, KJ/KG        -43685.4
 S, KJ/(KG)(K)    13.6028

 M, (1/n)          18.736
 (dLV/dLP)t      -1.01024
 (dLV/dLT)p        1.2056
 Cp, KJ/(KG)(K)    4.3815
 GAMMAs            1.1587
 SON VEL,M/SEC     1251.9

 MOLE FRACTIONS

 *C              8.027-11
 *CH             6.333-11
 CH2             3.093-10
 CH3             1.5014-9
 CH2OH           1.628-10
 CH3O            3.969-11
 CH4             1.0333-9
 CH3OH           2.541-11
 CH3OOH          2.370-16
 *CO             2.5649-1
 *CO2            7.0451-2
 COOH            2.3532-6
 *C2             9.282-16
 C2H             8.293-14
 C2H2,acetylene  4.625-12
 C2H2,vinylidene 1.625-14
 CH2CO,ketene    3.321-11
 O(CH)2O         1.720-13
 HO(CO)2OH       1.540-14
 C2H3,vinyl      2.299-15
 CH3CO,acetyl    2.800-14
 C2H4            2.530-15
 CH3CHO,ethanal  1.397-15
 CH3COOH         5.077-16
 C2O             4.008-11
 C3O2            1.574-13
 *H              1.9984-2
 HCO             6.4679-6
 HCCO            7.562-12
 HO2             2.6833-6
 *H2             2.0796-1
 HCHO,formaldehy 3.8209-7
 HCOOH           7.1680-7
 H2O             4.2828-1
 H2O2            8.6608-7
 *O              8.2553-4
 *OH             1.5332-2
 *O2             6.7033-4
 O3              1.083-10

  * THERMODYNAMIC PROPERTIES FITTED TO 20000.K









         THERMODYNAMIC EQUILIBRIUM COMBUSTION PROPERTIES AT ASSIGNED

                                     VOLUME

 CASE =                

             REACTANT                       MOLES         ENERGY      TEMP
                                                         KJ/KG-MOL      K
 FUEL        CH3OH                        1.0000000   -203352.771    300.000
 OXIDANT     O2                           1.5000000     -2439.995    300.000

 O/F=    0.74899  %FUEL= 57.175787  R,EQ.RATIO= 1.600000  PHI,EQ.RATIO= 2.000000

 THERMODYNAMIC PROPERTIES

 P, BAR            17.231
 T, K             2971.40
 RHO, KG/CU M    1.2841 0
 H, KJ/KG        -2319.40
 U, KJ/KG        -3661.30
 G, KJ/KG        -43010.3
 S, KJ/(KG)(K)    13.6942

 M, (1/n)          18.411
 (dLV/dLP)t      -1.00756
 (dLV/dLT)p        1.1543
 Cp, KJ/(KG)(K)    3.9858
 GAMMAs            1.1674
 SON VEL,M/SEC     1251.6

 MOLE FRACTIONS

 *C              5.128-11
 *CH             4.779-11
 CH2             3.020-10
 CH3             1.9570-9
 CH2OH           1.725-10
 CH3O            4.002-11
 CH4             1.7308-9
 CH3OH           3.373-11
 CH3OOH          2.003-16
 *CO             2.6312-1
 *CO2            6.5396-2
 COOH            1.9014-6
 *C2             6.978-16
 C2H             8.437-14
 C2H2,acetylene  6.902-12
 C2H2,vinylidene 2.037-14
 CH2CO,ketene    4.526-11
 O(CH)2O         1.879-13
 HO(CO)2OH       1.323-14
 C2H3,vinyl      3.365-15
 CH3CO,acetyl    3.798-14
 C2H4            4.935-15
 CH3CHO,ethanal  2.330-15
 CH3COOH         7.478-16
 C2O             3.548-11
 C3O2            1.835-13
 *H              1.6640-2
 HCO             5.9263-6
 HCCO            7.862-12
 HO2             1.3167-6
 *H2             2.2776-1
 HCHO,formaldehy 4.2471-7
 HCOOH           7.0574-7
 H2O             4.1562-1
 H2O2            5.1492-7
 *O              4.4064-4
 *OH             1.0691-2
 *O2             3.1855-4
 O3              2.973-11

  * THERMODYNAMIC PROPERTIES FITTED TO 20000.K



