
 *******************************************************************************

         NASA-GLENN CHEMICAL EQUILIBRIUM PROGRAM CEA2, MAY 21, 2004
                   BY  BONNIE MCBRIDE AND SANFORD GORDON
      REFS: NASA RP-1311, PART I, 1994 AND NASA RP-1311, PART II, 1996

 *******************************************************************************



 problem    phi,eq.ratio=3.7,3.8,3.9,4,
       uv   rho,kg/m**3=1.2841,  t,k=3800
 react
   fuel=CH3OH moles=1 t,k=300
   oxid=O2 moles=1.5 t,k=300
 output
      trace=1e-16 siunits short
 end




         THERMODYNAMIC EQUILIBRIUM COMBUSTION PROPERTIES AT ASSIGNED

                                     VOLUME

 CASE =                

             REACTANT                       MOLES         ENERGY      TEMP
                                                         KJ/KG-MOL      K
 FUEL        CH3OH                        1.0000000   -203352.771    300.000
 OXIDANT     O2                           1.5000000     -2439.995    300.000

 O/F=    0.40486  %FUEL= 71.181440  R,EQ.RATIO= 2.208955  PHI,EQ.RATIO= 3.700000

 THERMODYNAMIC PROPERTIES

 P, BAR            12.443
 T, K             1748.73
 RHO, KG/CU M    1.2841 0
 H, KJ/KG        -3570.46
 U, KJ/KG        -4539.49
 G, KJ/KG        -28638.3
 S, KJ/(KG)(K)    14.3349

 M, (1/n)          15.005
 (dLV/dLP)t      -1.00004
 (dLV/dLT)p        1.0005
 Cp, KJ/(KG)(K)    2.6611
 GAMMAs            1.2633
 SON VEL,M/SEC     1106.4

 MOLE FRACTIONS

 *CH             4.729-16
 CH2             1.424-12
 CH3             1.1585-8
 CH2OH           2.544-11
 CH3O            1.748-12
 CH4             5.7647-6
 CH3OH           1.1506-9
 *CO             2.9134-1
 *CO2            4.1985-2
 COOH            9.3133-9
 C2H             2.308-16
 C2H2,acetylene  3.336-10
 C2H2,vinylidene 6.521-15
 CH2CO,ketene    1.4186-9
 O(CH)2O         1.090-13
 HO(CO)2OH       7.878-16
 C2H3,vinyl      3.342-14
 CH3CO,acetyl    4.344-13
 C2H4            6.222-11
 CH3CHO,ethanal  3.161-12
 CH3COOH         3.010-13
 OHCH2COOH       1.942-16
 C2H5            1.028-14
 C2H6            5.875-13
 C2H5OH          8.470-16
 C2O             4.525-14
 C3H3,2-propynl  1.338-16
 C3H4,allene     1.867-16
 C3H4,propyne    4.898-16
 C3O2            2.992-13
 *H              4.3223-5
 HCO             1.0582-7
 HCCO            3.252-13
 HO2             9.097-14
 *H2             4.3834-1
 HCHO,formaldehy 6.7570-7
 HCOOH           3.5848-7
 H2O             2.2829-1
 H2O2            2.837-12
 *O              1.017-10
 *OH             1.5134-6
 *O2             2.360-11

  * THERMODYNAMIC PROPERTIES FITTED TO 20000.K









         THERMODYNAMIC EQUILIBRIUM COMBUSTION PROPERTIES AT ASSIGNED

                                     VOLUME

 CASE =                

             REACTANT                       MOLES         ENERGY      TEMP
                                                         KJ/KG-MOL      K
 FUEL        CH3OH                        1.0000000   -203352.771    300.000
 OXIDANT     O2                           1.5000000     -2439.995    300.000

 O/F=    0.39421  %FUEL= 71.725393  R,EQ.RATIO= 2.235294  PHI,EQ.RATIO= 3.800000

 THERMODYNAMIC PROPERTIES

 P, BAR            12.164
 T, K             1696.54
 RHO, KG/CU M    1.2841 0
 H, KJ/KG        -3626.32
 U, KJ/KG        -4573.59
 G, KJ/KG        -27954.3
 S, KJ/(KG)(K)    14.3397

 M, (1/n)          14.891
 (dLV/dLP)t      -1.00005
 (dLV/dLT)p        1.0005
 Cp, KJ/(KG)(K)    2.6623
 GAMMAs            1.2657
 SON VEL,M/SEC     1095.0

 MOLE FRACTIONS

 *CH             1.874-16
 CH2             8.796-13
 CH3             1.2044-8
 CH2OH           2.097-11
 CH3O            1.327-12
 CH4             9.5995-6
 CH3OH           1.4116-9
 *CO             2.9097-1
 *CO2            4.2354-2
 COOH            6.4294-9
 C2H             1.331-16
 C2H2,acetylene  3.944-10
 C2H2,vinylidene 5.264-15
 CH2CO,ketene    1.6968-9
 O(CH)2O         1.016-13
 HO(CO)2OH       6.832-16
 C2H3,vinyl      3.451-14
 CH3CO,acetyl    4.774-13
 C2H4            1.085-10
 C2H4O,ethylen-o 1.075-16
 CH3CHO,ethanal  4.889-12
 CH3COOH         4.481-13
 OHCH2COOH       2.165-16
 C2H5            1.564-14
 C2H6            1.375-12
 C2H5OH          1.516-15
 C2O             2.614-14
 C3H3,2-propynl  1.740-16
 C3H4,allene     3.288-16
 C3H4,propyne    8.758-16
 C3H6,propylene  1.750-16
 C3O2            2.957-13
 *H              2.7344-5
 HCO             7.6594-8
 HCCO            2.399-13
 HO2             2.856-14
 *H2             4.4582-1
 HCHO,formaldehy 6.7654-7
 HCOOH           3.4740-7
 H2O             2.2081-1
 H2O2            1.219-12
 *O              3.395-11
 *OH             8.0135-7
 *O2             7.555-12

  * THERMODYNAMIC PROPERTIES FITTED TO 20000.K









         THERMODYNAMIC EQUILIBRIUM COMBUSTION PROPERTIES AT ASSIGNED

                                     VOLUME

 CASE =                

             REACTANT                       MOLES         ENERGY      TEMP
                                                         KJ/KG-MOL      K
 FUEL        CH3OH                        1.0000000   -203352.771    300.000
 OXIDANT     O2                           1.5000000     -2439.995    300.000

 O/F=    0.38410  %FUEL= 72.249193  R,EQ.RATIO= 2.260870  PHI,EQ.RATIO= 3.900000

 THERMODYNAMIC PROPERTIES

 P, BAR            11.890
 T, K             1646.40
 RHO, KG/CU M    1.2841 0
 H, KJ/KG        -3680.47
 U, KJ/KG        -4606.44
 G, KJ/KG        -27293.6
 S, KJ/(KG)(K)    14.3423

 M, (1/n)          14.783
 (dLV/dLP)t      -1.00007
 (dLV/dLT)p        1.0007
 Cp, KJ/(KG)(K)    2.6650
 GAMMAs            1.2678
 SON VEL,M/SEC     1083.5

 MOLE FRACTIONS

 CH2             5.363-13
 CH3             1.2489-8
 CH2OH           1.719-11
 CH3O            1.001-12
 CH4             1.6110-5
 CH3OH           1.7373-9
 *CO             2.9049-1
 *CO2            4.2838-2
 COOH            4.4135-9
 C2H2,acetylene  4.657-10
 C2H2,vinylidene 4.209-15
 CH2CO,ketene    2.0327-9
 O(CH)2O         9.462-14
 HO(CO)2OH       5.942-16
 C2H3,vinyl      3.548-14
 CH3CO,acetyl    5.245-13
 C2H4            1.905-10
 C2H4O,ethylen-o 1.305-16
 CH3CHO,ethanal  7.614-12
 CH3COOH         6.731-13
 OHCH2COOH       2.426-16
 C2H5            2.387-14
 C2H6            3.257-12
 C2H5OH          2.740-15
 C2O             1.490-14
 C3H3,2-propynl  2.260-16
 C3H4,allene     5.824-16
 C3H4,propyne    1.575-15
 C3H6,propylene  4.527-16
 C3O2            2.921-13
 *H              1.7129-5
 HCO             5.5033-8
 HCCO            1.755-13
 HO2             8.788-15
 *H2             4.5305-1
 HCHO,formaldehy 6.7695-7
 HCOOH           3.3729-7
 H2O             2.1359-1
 H2O2            5.159-13
 *O              1.110-11
 *OH             4.1929-7
 *O2             2.372-12

  * THERMODYNAMIC PROPERTIES FITTED TO 20000.K









         THERMODYNAMIC EQUILIBRIUM COMBUSTION PROPERTIES AT ASSIGNED

                                     VOLUME

 CASE =                

             REACTANT                       MOLES         ENERGY      TEMP
                                                         KJ/KG-MOL      K
 FUEL        CH3OH                        1.0000000   -203352.771    300.000
 OXIDANT     O2                           1.5000000     -2439.995    300.000

 O/F=    0.37450  %FUEL= 72.753938  R,EQ.RATIO= 2.285714  PHI,EQ.RATIO= 4.000000

 THERMODYNAMIC PROPERTIES

 P, BAR            11.623
 T, K             1598.20
 RHO, KG/CU M    1.2841 0
 H, KJ/KG        -3732.97
 U, KJ/KG        -4638.08
 G, KJ/KG        -26655.6
 S, KJ/(KG)(K)    14.3428

 M, (1/n)          14.681
 (dLV/dLP)t      -1.00011
 (dLV/dLT)p        1.0010
 Cp, KJ/(KG)(K)    2.6695
 GAMMAs            1.2698
 SON VEL,M/SEC     1072.1

 MOLE FRACTIONS

 CH2             3.228-13
 CH3             1.2921-8
 CH2OH           1.403-11
 CH3O            7.511-13
 CH4             2.7253-5
 CH3OH           2.1450-9
 *CO             2.8989-1
 *CO2            4.3432-2
 COOH            3.0125-9
 C2H2,acetylene  5.498-10
 C2H2,vinylidene 3.335-15
 CH2CO,ketene    2.4396-9
 O(CH)2O         8.805-14
 HO(CO)2OH       5.181-16
 C2H3,vinyl      3.634-14
 CH3CO,acetyl    5.765-13
 C2H4            3.369-10
 C2H4O,ethylen-o 1.588-16
 CH3CHO,ethanal  1.194-11
 CH3COOH         1.020-12
 OHCH2COOH       2.735-16
 C2H5            3.658-14
 C2H6            7.817-12
 C2H5OH          4.999-15
 C2O             8.390-15
 C3H3,2-propynl  2.936-16
 C3H4,allene     1.038-15
 C3H4,propyne    2.850-15
 C3H6,propylene  1.187-15
 C3O2            2.882-13
 *H              1.0626-5
 HCO             3.9257-8
 HCCO            1.274-13
 HO2             2.649-15
 *H2             4.6003-1
 HCHO,formaldehy 6.7699-7
 HCOOH           3.2807-7
 H2O             2.0661-1
 H2O2            2.154-13
 *O              3.556-12
 *OH             2.1676-7
 *O2             7.299-13

  * THERMODYNAMIC PROPERTIES FITTED TO 20000.K



