
 *******************************************************************************

         NASA-GLENN CHEMICAL EQUILIBRIUM PROGRAM CEA2, MAY 21, 2004
                   BY  BONNIE MCBRIDE AND SANFORD GORDON
      REFS: NASA RP-1311, PART I, 1994 AND NASA RP-1311, PART II, 1996

 *******************************************************************************



 problem    phi,eq.ratio=2.1,2.2,2.3,2.4,2.5,2.6,2.7,2.8,2.9,3,3.1,3.2,3.3,3.4,3.
 5,3.6,
       uv   rho,kg/m**3=0.917,  t,k=3800
 react
   fuel=CH4 moles=0.85 t,k=300
   oxid=O2 moles=2.3 t,k=300
   fuel=C2H6 moles=0.1 t,k=300
   fuel=C3H8 moles=0.05 t,k=300
 output
      trace=1e-16 siunits short
 end




         THERMODYNAMIC EQUILIBRIUM COMBUSTION PROPERTIES AT ASSIGNED

                                     VOLUME

 CASE =                

             REACTANT                       MOLES         ENERGY      TEMP
                                                         KJ/KG-MOL      K
 FUEL        CH4                          0.8500000    -77028.260    300.000
 OXIDANT     O2                           2.3000000     -2439.995    300.000
 FUEL        C2H6                         0.1000000    -86248.563    300.000
 FUEL        C3H8                         0.0500000   -107037.874    300.000

 O/F=    1.85944  %FUEL= 34.971885  R,EQ.RATIO= 2.100000  PHI,EQ.RATIO= 2.100000

 THERMODYNAMIC PROPERTIES

 P, BAR            14.827
 T, K             3029.04
 RHO, KG/CU M    9.1700-1
 H, KJ/KG          93.136
 U, KJ/KG        -1523.79
 G, KJ/KG        -46272.5
 S, KJ/(KG)(K)    15.3070

 M, (1/n)          15.576
 (dLV/dLP)t      -1.00883
 (dLV/dLT)p        1.1693
 Cp, KJ/(KG)(K)    4.4789
 GAMMAs            1.1822
 SON VEL,M/SEC     1382.6

 MOLE FRACTIONS

 *C              2.620-10
 *CH             2.620-10
 CH2             1.6580-9
 CH3             1.0503-8
 CH2OH           3.675-10
 CH3O            8.855-11
 CH4             9.3468-9
 CH3OH           7.373-11
 CH3OOH          2.094-16
 *CO             3.1789-1
 *CO2            2.8908-2
 COOH            1.1379-6
 *C2             9.789-15
 C2H             1.145-12
 C2H2,acetylene  8.523-11
 C2H2,vinylidene 2.873-13
 CH2CO,ketene    2.031-10
 O(CH)2O         3.384-13
 HO(CO)2OH       3.287-15
 C2H3,vinyl      5.138-14
 CH3CO,acetyl    2.083-13
 C2H4            7.375-14
 CH3CHO,ethanal  1.330-14
 CH3COOH         1.591-15
 C2O             1.490-10
 C3O2            6.585-13
 *H              2.7242-2
 HCO             9.5050-6
 HCCO            3.559-11
 HO2             3.7068-7
 *H2             3.6868-1
 HCHO,formaldehy 7.1625-7
 HCOOH           4.4259-7
 H2O             2.5012-1
 H2O2            1.5257-7
 *O              2.8171-4
 *OH             6.7932-3
 *O2             7.5441-5
 O3              3.624-12

  * THERMODYNAMIC PROPERTIES FITTED TO 20000.K









         THERMODYNAMIC EQUILIBRIUM COMBUSTION PROPERTIES AT ASSIGNED

                                     VOLUME

 CASE =                

             REACTANT                       MOLES         ENERGY      TEMP
                                                         KJ/KG-MOL      K
 FUEL        CH4                          0.8500000    -77028.260    300.000
 OXIDANT     O2                           2.3000000     -2439.995    300.000
 FUEL        C2H6                         0.1000000    -86248.563    300.000
 FUEL        C3H8                         0.0500000   -107037.874    300.000

 O/F=    1.77492  %FUEL= 36.037077  R,EQ.RATIO= 2.200000  PHI,EQ.RATIO= 2.200000

 THERMODYNAMIC PROPERTIES

 P, BAR            14.676
 T, K             2924.24
 RHO, KG/CU M    9.1700-1
 H, KJ/KG          32.552
 U, KJ/KG        -1567.88
 G, KJ/KG        -45177.1
 S, KJ/(KG)(K)    15.4603

 M, (1/n)          15.192
 (dLV/dLP)t      -1.00626
 (dLV/dLT)p        1.1230
 Cp, KJ/(KG)(K)    4.0950
 GAMMAs            1.1937
 SON VEL,M/SEC     1382.2

 MOLE FRACTIONS

 *C              1.360-10
 *CH             1.675-10
 CH2             1.4848-9
 CH3             1.3766-8
 CH2OH           3.618-10
 CH3O            8.136-11
 CH4             1.7007-8
 CH3OH           9.720-11
 CH3OOH          1.471-16
 *CO             3.2290-1
 *CO2            2.5660-2
 COOH            8.1006-7
 *C2             6.230-15
 C2H             1.087-12
 C2H2,acetylene  1.353-10
 C2H2,vinylidene 3.566-13
 CH2CO,ketene    2.852-10
 O(CH)2O         3.501-13
 HO(CO)2OH       2.454-15
 C2H3,vinyl      7.732-14
 CH3CO,acetyl    2.834-13
 C2H4            1.621-13
 CH3CHO,ethanal  2.358-14
 CH3COOH         2.383-15
 C2H5            1.621-16
 C2O             1.200-10
 C3O2            7.664-13
 *H              2.0512-2
 HCO             8.0290-6
 HCCO            3.503-11
 HO2             1.3416-7
 *H2             3.9783-1
 HCHO,formaldehy 7.7405-7
 HCOOH           4.0562-7
 H2O             2.2894-1
 H2O2            7.0511-8
 *O              1.1707-4
 *OH             4.0071-3
 *O2             2.6773-5
 O3              5.990-13

  * THERMODYNAMIC PROPERTIES FITTED TO 20000.K









         THERMODYNAMIC EQUILIBRIUM COMBUSTION PROPERTIES AT ASSIGNED

                                     VOLUME

 CASE =                

             REACTANT                       MOLES         ENERGY      TEMP
                                                         KJ/KG-MOL      K
 FUEL        CH4                          0.8500000    -77028.260    300.000
 OXIDANT     O2                           2.3000000     -2439.995    300.000
 FUEL        C2H6                         0.1000000    -86248.563    300.000
 FUEL        C3H8                         0.0500000   -107037.874    300.000

 O/F=    1.69775  %FUEL= 37.067936  R,EQ.RATIO= 2.300000  PHI,EQ.RATIO= 2.300000

 THERMODYNAMIC PROPERTIES

 P, BAR            14.469
 T, K             2813.84
 RHO, KG/CU M    9.1700-1
 H, KJ/KG         -32.652
 U, KJ/KG        -1610.55
 G, KJ/KG        -43932.1
 S, KJ/(KG)(K)    15.6013

 M, (1/n)          14.827
 (dLV/dLP)t      -1.00429
 (dLV/dLT)p        1.0868
 Cp, KJ/(KG)(K)    3.7808
 GAMMAs            1.2061
 SON VEL,M/SEC     1379.5

 MOLE FRACTIONS

 *C              6.279-11
 *CH             9.686-11
 CH2             1.2430-9
 CH3             1.7555-8
 CH2OH           3.420-10
 CH3O            7.119-11
 CH4             3.1200-8
 CH3OH           1.266-10
 *CO             3.2703-1
 *CO2            2.2893-2
 COOH            5.5633-7
 *C2             3.508-15
 C2H             9.535-13
 C2H2,acetylene  2.101-10
 C2H2,vinylidene 4.186-13
 CH2CO,ketene    3.952-10
 O(CH)2O         3.520-13
 HO(CO)2OH       1.794-15
 C2H3,vinyl      1.117-13
 CH3CO,acetyl    3.750-13
 C2H4            3.563-13
 CH3CHO,ethanal  4.163-14
 CH3COOH         3.567-15
 C2H5            3.295-16
 C2H6            1.014-16
 C2O             9.061-11
 C3O2            8.728-13
 *H              1.4743-2
 HCO             6.5238-6
 HCCO            3.281-11
 HO2             4.4185-8
 *H2             4.2495-1
 HCHO,formaldehy 8.2276-7
 HCOOH           3.6700-7
 H2O             2.0809-1
 H2O2            3.0291-8
 *O              4.4477-5
 *OH             2.2379-3
 *O2             8.7200-6
 O3              8.457-14

  * THERMODYNAMIC PROPERTIES FITTED TO 20000.K









         THERMODYNAMIC EQUILIBRIUM COMBUSTION PROPERTIES AT ASSIGNED

                                     VOLUME

 CASE =                

             REACTANT                       MOLES         ENERGY      TEMP
                                                         KJ/KG-MOL      K
 FUEL        CH4                          0.8500000    -77028.260    300.000
 OXIDANT     O2                           2.3000000     -2439.995    300.000
 FUEL        C2H6                         0.1000000    -86248.563    300.000
 FUEL        C3H8                         0.0500000   -107037.874    300.000

 O/F=    1.62701  %FUEL= 38.066093  R,EQ.RATIO= 2.400000  PHI,EQ.RATIO= 2.400000

 THERMODYNAMIC PROPERTIES

 P, BAR            14.210
 T, K             2698.83
 RHO, KG/CU M    9.1700-1
 H, KJ/KG         -102.23
 U, KJ/KG        -1651.86
 G, KJ/KG        -42555.4
 S, KJ/(KG)(K)    15.7302

 M, (1/n)          14.481
 (dLV/dLP)t      -1.00283
 (dLV/dLT)p        1.0592
 Cp, KJ/(KG)(K)    3.5279
 GAMMAs            1.2192
 SON VEL,M/SEC     1374.5

 MOLE FRACTIONS

 *C              2.556-11
 *CH             5.036-11
 CH2             9.715-10
 CH3             2.1864-8
 CH2OH           3.107-10
 CH3O            5.937-11
 CH4             5.8205-8
 CH3OH           1.638-10
 *CO             3.3041-1
 *CO2            2.0533-2
 COOH            3.6776-7
 *C2             1.737-15
 C2H             7.715-13
 C2H2,acetylene  3.211-10
 C2H2,vinylidene 4.659-13
 CH2CO,ketene    5.432-10
 O(CH)2O         3.449-13
 HO(CO)2OH       1.287-15
 C2H3,vinyl      1.559-13
 CH3CO,acetyl    4.852-13
 C2H4            7.909-13
 CH3CHO,ethanal  7.387-14
 CH3COOH         5.379-15
 C2H5            6.631-16
 C2H6            2.998-16
 C2O             6.396-11
 C3H3,2-propynl  1.033-16
 C3O2            9.755-13
 *H              1.0083-2
 HCO             5.0920-6
 HCCO            2.925-11
 HO2             1.3110-8
 *H2             4.4991-1
 HCHO,formaldehy 8.6194-7
 HCOOH           3.2829-7
 H2O             1.8786-1
 H2O2            1.2014-8
 *O              1.5299-5
 *OH             1.1770-3
 *O2             2.5790-6
 O3              1.002-14

  * THERMODYNAMIC PROPERTIES FITTED TO 20000.K









         THERMODYNAMIC EQUILIBRIUM COMBUSTION PROPERTIES AT ASSIGNED

                                     VOLUME

 CASE =                

             REACTANT                       MOLES         ENERGY      TEMP
                                                         KJ/KG-MOL      K
 FUEL        CH4                          0.8500000    -77028.260    300.000
 OXIDANT     O2                           2.3000000     -2439.995    300.000
 FUEL        C2H6                         0.1000000    -86248.563    300.000
 FUEL        C3H8                         0.0500000   -107037.874    300.000

 O/F=    1.56193  %FUEL= 39.033081  R,EQ.RATIO= 2.500000  PHI,EQ.RATIO= 2.500000

 THERMODYNAMIC PROPERTIES

 P, BAR            13.902
 T, K             2580.31
 RHO, KG/CU M    9.1700-1
 H, KJ/KG         -175.85
 U, KJ/KG        -1691.89
 G, KJ/KG        -41067.1
 S, KJ/(KG)(K)    15.8474

 M, (1/n)          14.151
 (dLV/dLP)t      -1.00179
 (dLV/dLT)p        1.0388
 Cp, KJ/(KG)(K)    3.3301
 GAMMAs            1.2324
 SON VEL,M/SEC     1366.9

 MOLE FRACTIONS

 *C              9.100-12
 *CH             2.341-11
 CH2             7.079-10
 CH3             2.6693-8
 CH2OH           2.715-10
 CH3O            4.722-11
 CH4             1.1141-7
 CH3OH           2.116-10
 *CO             3.3317-1
 *CO2            1.8511-2
 COOH            2.3342-7
 *C2             7.515-16
 C2H             5.755-13
 C2H2,acetylene  4.860-10
 C2H2,vinylidene 4.929-13
 CH2CO,ketene    7.447-10
 O(CH)2O         3.301-13
 HO(CO)2OH       9.058-16
 C2H3,vinyl      2.111-13
 CH3CO,acetyl    6.170-13
 C2H4            1.792-12
 CH3CHO,ethanal  1.329-13
 CH3COOH         8.238-15
 C2H5            1.336-15
 C2H6            9.237-16
 C2O             4.212-11
 C3H3,2-propynl  1.948-16
 C3O2            1.073-12
 *H              6.5402-3
 HCO             3.8119-6
 HCCO            2.483-11
 HO2             3.4666-9
 *H2             4.7272-1
 HCHO,formaldehy 8.9177-7
 HCOOH           2.9066-7
 H2O             1.6847-1
 H2O2            4.3665-9
 *O              4.7169-6
 *OH             5.7973-4
 *O2             6.8482-7
 O3              9.780-16

  * THERMODYNAMIC PROPERTIES FITTED TO 20000.K









         THERMODYNAMIC EQUILIBRIUM COMBUSTION PROPERTIES AT ASSIGNED

                                     VOLUME

 CASE =                

             REACTANT                       MOLES         ENERGY      TEMP
                                                         KJ/KG-MOL      K
 FUEL        CH4                          0.8500000    -77028.260    300.000
 OXIDANT     O2                           2.3000000     -2439.995    300.000
 FUEL        C2H6                         0.1000000    -86248.563    300.000
 FUEL        C3H8                         0.0500000   -107037.874    300.000

 O/F=    1.50186  %FUEL= 39.970338  R,EQ.RATIO= 2.600000  PHI,EQ.RATIO= 2.600000

 THERMODYNAMIC PROPERTIES

 P, BAR            13.550
 T, K             2459.55
 RHO, KG/CU M    9.1700-1
 H, KJ/KG         -253.01
 U, KJ/KG        -1730.68
 G, KJ/KG        -39490.2
 S, KJ/(KG)(K)    15.9530

 M, (1/n)          13.839
 (dLV/dLP)t      -1.00107
 (dLV/dLT)p        1.0243
 Cp, KJ/(KG)(K)    3.1815
 GAMMAs            1.2454
 SON VEL,M/SEC     1356.6

 MOLE FRACTIONS

 *C              2.811-12
 *CH             9.687-12
 CH2             4.805-10
 CH3             3.2074-8
 CH2OH           2.285-10
 CH3O            3.584-11
 CH4             2.2075-7
 CH3OH           2.743-10
 *CO             3.3541-1
 *CO2            1.6771-2
 COOH            1.4188-7
 *C2             2.826-16
 C2H             3.958-13
 C2H2,acetylene  7.329-10
 C2H2,vinylidene 4.972-13
 CH2CO,ketene    1.0236-9
 O(CH)2O         3.094-13
 HO(CO)2OH       6.258-16
 C2H3,vinyl      2.791-13
 CH3CO,acetyl    7.755-13
 C2H4            4.191-12
 CH3CHO,ethanal  2.446-13
 CH3COOH         1.292-14
 C2H5            2.720-15
 C2H6            3.010-15
 C2O             2.583-11
 C3H3,2-propynl  3.656-16
 C3O2            1.167-12
 *H              4.0115-3
 HCO             2.7334-6
 HCCO            2.009-11
 HO2             8.085-10
 *H2             4.9351-1
 HCHO,formaldehy 9.1303-7
 HCOOH           2.5498-7
 H2O             1.5002-1
 H2O2            1.4437-9
 *O              1.2909-6
 *OH             2.6589-4
 *O2             1.6147-7

  * THERMODYNAMIC PROPERTIES FITTED TO 20000.K









         THERMODYNAMIC EQUILIBRIUM COMBUSTION PROPERTIES AT ASSIGNED

                                     VOLUME

 CASE =                

             REACTANT                       MOLES         ENERGY      TEMP
                                                         KJ/KG-MOL      K
 FUEL        CH4                          0.8500000    -77028.260    300.000
 OXIDANT     O2                           2.3000000     -2439.995    300.000
 FUEL        C2H6                         0.1000000    -86248.563    300.000
 FUEL        C3H8                         0.0500000   -107037.874    300.000

 O/F=    1.44623  %FUEL= 40.879215  R,EQ.RATIO= 2.700000  PHI,EQ.RATIO= 2.700000

 THERMODYNAMIC PROPERTIES

 P, BAR            13.161
 T, K             2337.88
 RHO, KG/CU M    9.1700-1
 H, KJ/KG         -333.11
 U, KJ/KG        -1768.30
 G, KJ/KG        -37849.5
 S, KJ/(KG)(K)    16.0472

 M, (1/n)          13.544
 (dLV/dLP)t      -1.00061
 (dLV/dLT)p        1.0144
 Cp, KJ/(KG)(K)    3.0753
 GAMMAs            1.2576
 SON VEL,M/SEC     1343.4

 MOLE FRACTIONS

 *C              7.489-13
 *CH             3.553-12
 CH2             3.037-10
 CH3             3.8086-8
 CH2OH           1.854-10
 CH3O            2.600-11
 CH4             4.5665-7
 CH3OH           3.587-10
 *CO             3.3725-1
 *CO2            1.5260-2
 COOH            8.2388-8
 C2H             2.512-13
 C2H2,acetylene  1.1087-9
 C2H2,vinylidene 4.800-13
 CH2CO,ketene    1.4183-9
 O(CH)2O         2.848-13
 HO(CO)2OH       4.244-16
 C2H3,vinyl      3.625-13
 CH3CO,acetyl    9.693-13
 C2H4            1.023-11
 CH3CHO,ethanal  4.648-13
 CH3COOH         2.090-14
 C2H5            5.662-15
 C2H6            1.052-14
 C2O             1.474-11
 C3H3,2-propynl  6.897-16
 C3H4,propyne    2.056-16
 C3O2            1.259-12
 *H              2.3206-3
 HCO             1.8753-6
 HCCO            1.551-11
 HO2             1.646-10
 *H2             5.1246-1
 HCHO,formaldehy 9.2687-7
 HCOOH           2.2181-7
 H2O             1.3260-1
 H2O2            4.311-10
 *O              3.1080-7
 *OH             1.1295-4
 *O2             3.3447-8

  * THERMODYNAMIC PROPERTIES FITTED TO 20000.K









         THERMODYNAMIC EQUILIBRIUM COMBUSTION PROPERTIES AT ASSIGNED

                                     VOLUME

 CASE =                

             REACTANT                       MOLES         ENERGY      TEMP
                                                         KJ/KG-MOL      K
 FUEL        CH4                          0.8500000    -77028.260    300.000
 OXIDANT     O2                           2.3000000     -2439.995    300.000
 FUEL        C2H6                         0.1000000    -86248.563    300.000
 FUEL        C3H8                         0.0500000   -107037.874    300.000

 O/F=    1.39458  %FUEL= 41.760980  R,EQ.RATIO= 2.800000  PHI,EQ.RATIO= 2.800000

 THERMODYNAMIC PROPERTIES

 P, BAR            12.740
 T, K             2216.63
 RHO, KG/CU M    9.1700-1
 H, KJ/KG         -415.48
 U, KJ/KG        -1804.80
 G, KJ/KG        -36169.7
 S, KJ/(KG)(K)    16.1300

 M, (1/n)          13.266
 (dLV/dLP)t      -1.00033
 (dLV/dLT)p        1.0082
 Cp, KJ/(KG)(K)    3.0039
 GAMMAs            1.2686
 SON VEL,M/SEC     1327.6

 MOLE FRACTIONS

 *C              1.712-13
 *CH             1.152-12
 CH2             1.789-10
 CH3             4.4879-8
 CH2OH           1.452-10
 CH3O            1.804-11
 CH4             9.9440-7
 CH3OH           4.752-10
 *CO             3.3878-1
 *CO2            1.3932-2
 COOH            4.5583-8
 C2H             1.475-13
 C2H2,acetylene  1.6941-9
 C2H2,vinylidene 4.455-13
 CH2CO,ketene    1.9920-9
 O(CH)2O         2.580-13
 HO(CO)2OH       2.825-16
 C2H3,vinyl      4.658-13
 CH3CO,acetyl    1.212-12
 C2H4            2.631-11
 C2H4O,ethylen-o 1.396-16
 CH3CHO,ethanal  9.195-13
 CH3COOH         3.512-14
 C2H5            1.217-14
 C2H6            4.004-14
 C2H5OH          1.094-16
 C2O             7.825-12
 C3H3,2-propynl  1.322-15
 C3H4,allene     2.542-16
 C3H4,propyne    6.011-16
 C3O2            1.352-12
 *H              1.2630-3
 HCO             1.2297-6
 HCCO            1.145-11
 HO2             2.898-11
 *H2             5.2979-1
 HCHO,formaldehy 9.3464-7
 HCOOH           1.9144-7
 H2O             1.1619-1
 H2O2            1.154-10
 *O              6.5260-8
 *OH             4.4208-5
 *O2             6.0227-9

  * THERMODYNAMIC PROPERTIES FITTED TO 20000.K









         THERMODYNAMIC EQUILIBRIUM COMBUSTION PROPERTIES AT ASSIGNED

                                     VOLUME

 CASE =                

             REACTANT                       MOLES         ENERGY      TEMP
                                                         KJ/KG-MOL      K
 FUEL        CH4                          0.8500000    -77028.260    300.000
 OXIDANT     O2                           2.3000000     -2439.995    300.000
 FUEL        C2H6                         0.1000000    -86248.563    300.000
 FUEL        C3H8                         0.0500000   -107037.874    300.000

 O/F=    1.34649  %FUEL= 42.616829  R,EQ.RATIO= 2.900000  PHI,EQ.RATIO= 2.900000

 THERMODYNAMIC PROPERTIES

 P, BAR            12.295
 T, K             2096.89
 RHO, KG/CU M    9.1700-1
 H, KJ/KG         -499.45
 U, KJ/KG        -1840.22
 G, KJ/KG        -34472.3
 S, KJ/(KG)(K)    16.2015

 M, (1/n)          13.003
 (dLV/dLP)t      -1.00018
 (dLV/dLT)p        1.0044
 Cp, KJ/(KG)(K)    2.9589
 GAMMAs            1.2785
 SON VEL,M/SEC     1309.3

 MOLE FRACTIONS

 *C              3.335-14
 *CH             3.288-13
 CH2             9.814-11
 CH3             5.2704-8
 CH2OH           1.099-10
 CH3O            1.198-11
 CH4             2.2989-6
 CH3OH           6.404-10
 *CO             3.4007-1
 *CO2            1.2748-2
 COOH            2.3949-8
 C2H             8.020-14
 C2H2,acetylene  2.6345-9
 C2H2,vinylidene 3.991-13
 CH2CO,ketene    2.8521-9
 O(CH)2O         2.307-13
 HO(CO)2OH       1.842-16
 C2H3,vinyl      5.961-13
 CH3CO,acetyl    1.524-12
 C2H4            7.221-11
 C2H4O,ethylen-o 2.019-16
 CH3CHO,ethanal  1.910-12
 CH3COOH         6.179-14
 C2H5            2.734-14
 C2H6            1.682-13
 C2H5OH          2.804-16
 C2O             3.861-12
 C3H3,2-propynl  2.606-15
 C3H4,allene     7.779-16
 C3H4,propyne    1.882-15
 C3O2            1.453-12
 *H              6.4497-4
 HCO             7.6968-7
 HCCO            8.094-12
 HO2             4.357-12
 *H2             5.4572-1
 HCHO,formaldehy 9.3768-7
 HCOOH           1.6393-7
 H2O             1.0079-1
 H2O2            2.745-11
 *O              1.1835-8
 *OH             1.5841-5
 *O2             9.314-10

  * THERMODYNAMIC PROPERTIES FITTED TO 20000.K









         THERMODYNAMIC EQUILIBRIUM COMBUSTION PROPERTIES AT ASSIGNED

                                     VOLUME

 CASE =                

             REACTANT                       MOLES         ENERGY      TEMP
                                                         KJ/KG-MOL      K
 FUEL        CH4                          0.8500000    -77028.260    300.000
 OXIDANT     O2                           2.3000000     -2439.995    300.000
 FUEL        C2H6                         0.1000000    -86248.563    300.000
 FUEL        C3H8                         0.0500000   -107037.874    300.000

 O/F=    1.30161  %FUEL= 43.447888  R,EQ.RATIO= 3.000000  PHI,EQ.RATIO= 3.000000

 THERMODYNAMIC PROPERTIES

 P, BAR            11.831
 T, K             1979.50
 RHO, KG/CU M    9.1700-1
 H, KJ/KG         -584.47
 U, KJ/KG        -1874.62
 G, KJ/KG        -32774.5
 S, KJ/(KG)(K)    16.2617

 M, (1/n)          12.757
 (dLV/dLP)t      -1.00010
 (dLV/dLT)p        1.0023
 Cp, KJ/(KG)(K)    2.9328
 GAMMAs            1.2873
 SON VEL,M/SEC     1288.7

 MOLE FRACTIONS

 *C              5.497-15
 *CH             8.223-14
 CH2             5.011-11
 CH3             6.1950-8
 CH2OH           8.035-11
 CH3O            7.606-12
 CH4             5.6955-6
 CH3OH           8.819-10
 *CO             3.4121-1
 *CO2            1.1669-2
 COOH            1.1893-8
 C2H             4.046-14
 C2H2,acetylene  4.2043-9
 C2H2,vinylidene 3.469-13
 CH2CO,ketene    4.1891-9
 O(CH)2O         2.040-13
 HO(CO)2OH       1.173-16
 C2H3,vinyl      7.656-13
 CH3CO,acetyl    1.940-12
 C2H4            2.142-10
 C2H4O,ethylen-o 2.993-16
 CH3CHO,ethanal  4.210-12
 CH3COOH         1.146-13
 C2H5            6.491-14
 C2H6            7.939-13
 C2H5OH          7.754-16
 C2O             1.768-12
 C3H3,2-propynl  5.350-15
 C3H4,allene     2.586-15
 C3H4,propyne    6.411-15
 C3H6,propylene  2.772-16
 C3O2            1.568-12
 *H              3.0781-4
 HCO             4.5880-7
 HCCO            5.486-12
 HO2             5.514-13
 *H2             5.6044-1
 HCHO,formaldehy 9.3722-7
 HCOOH           1.3918-7
 H2O             8.6356-2
 H2O2            5.732-12
 *O              1.8305-9
 *OH             5.1550-6
 *O2             1.218-10

  * THERMODYNAMIC PROPERTIES FITTED TO 20000.K









         THERMODYNAMIC EQUILIBRIUM COMBUSTION PROPERTIES AT ASSIGNED

                                     VOLUME

 CASE =                

             REACTANT                       MOLES         ENERGY      TEMP
                                                         KJ/KG-MOL      K
 FUEL        CH4                          0.8500000    -77028.260    300.000
 OXIDANT     O2                           2.3000000     -2439.995    300.000
 FUEL        C2H6                         0.1000000    -86248.563    300.000
 FUEL        C3H8                         0.0500000   -107037.874    300.000

 O/F=    1.25962  %FUEL= 44.255219  R,EQ.RATIO= 3.100000  PHI,EQ.RATIO= 3.100000

 THERMODYNAMIC PROPERTIES

 P, BAR            11.352
 T, K             1864.97
 RHO, KG/CU M    9.1700-1
 H, KJ/KG         -670.08
 U, KJ/KG        -1908.04
 G, KJ/KG        -31088.8
 S, KJ/(KG)(K)    16.3106

 M, (1/n)          12.526
 (dLV/dLP)t      -1.00010
 (dLV/dLT)p        1.0015
 Cp, KJ/(KG)(K)    2.9195
 GAMMAs            1.2952
 SON VEL,M/SEC     1266.3

 MOLE FRACTIONS

 *C              7.576-16
 *CH             1.787-14
 CH2             2.377-11
 CH3             7.3227-8
 CH2OH           5.668-11
 CH3O            4.614-12
 CH4             1.5292-5
 CH3OH           1.2460-9
 *CO             3.4225-1
 *CO2            1.0662-2
 COOH            5.5446-9
 C2H             1.895-14
 C2H2,acetylene  6.9532-9
 C2H2,vinylidene 2.939-13
 CH2CO,ketene    6.3563-9
 O(CH)2O         1.786-13
 C2H3,vinyl      9.951-13
 CH3CO,acetyl    2.516-12
 C2H4            6.970-10
 C2H4O,ethylen-o 4.587-16
 CH3CHO,ethanal  9.948-12
 CH3COOH         2.261-13
 C2H5            1.652-13
 C2H6            4.292-12
 C2H5OH          2.346-15
 C2O             7.498-13
 C3H3,2-propynl  1.161-14
 C3H4,allene     9.524-15
 C3H4,propyne    2.424-14
 C3H5,allyl      2.453-16
 C3H6,propylene  1.946-15
 C3O2            1.710-12
 *H              1.3654-4
 HCO             2.5958-7
 HCCO            3.568-12
 HO2             5.754-14
 *H2             5.7409-1
 HCHO,formaldehy 9.3425-7
 HCOOH           1.1696-7
 H2O             7.2840-2
 H2O2            1.035-12
 *O              2.375-10
 *OH             1.5069-6
 *O2             1.320-11

  * THERMODYNAMIC PROPERTIES FITTED TO 20000.K









         THERMODYNAMIC EQUILIBRIUM COMBUSTION PROPERTIES AT ASSIGNED

                                     VOLUME

 CASE =                

             REACTANT                       MOLES         ENERGY      TEMP
                                                         KJ/KG-MOL      K
 FUEL        CH4                          0.8500000    -77028.260    300.000
 OXIDANT     O2                           2.3000000     -2439.995    300.000
 FUEL        C2H6                         0.1000000    -86248.563    300.000
 FUEL        C3H8                         0.0500000   -107037.874    300.000

 O/F=    1.22026  %FUEL= 45.039824  R,EQ.RATIO= 3.200000  PHI,EQ.RATIO= 3.200000

 THERMODYNAMIC PROPERTIES

 P, BAR            10.863
 T, K             1753.63
 RHO, KG/CU M    9.1700-1
 H, KJ/KG         -755.94
 U, KJ/KG        -1940.51
 G, KJ/KG        -29424.2
 S, KJ/(KG)(K)    16.3480

 M, (1/n)          12.309
 (dLV/dLP)t      -1.00020
 (dLV/dLT)p        1.0018
 Cp, KJ/(KG)(K)    2.9167
 GAMMAs            1.3025
 SON VEL,M/SEC     1242.1

 MOLE FRACTIONS

 *CH             3.339-15
 CH2             1.043-11
 CH3             8.7517-8
 CH2OH           3.850-11
 CH3O            2.666-12
 CH4             4.5095-5
 CH3OH           1.8150-9
 *CO             3.4322-1
 *CO2            9.6925-3
 COOH            2.4051-9
 C2H             8.241-15
 C2H2,acetylene  1.2061-8
 C2H2,vinylidene 2.441-13
 CH2CO,ketene    1.0048-8
 O(CH)2O         1.549-13
 C2H3,vinyl      1.322-12
 CH3CO,acetyl    3.351-12
 C2H4            2.5361-9
 C2H4O,ethylen-o 7.332-16
 CH3CHO,ethanal  2.554-11
 CH3COOH         4.788-13
 C2H5            4.586-13
 C2H6            2.723-11
 C2H5OH          7.890-15
 C2O             2.932-13
 C3H3,2-propynl  2.712-14
 C3H4,allene     3.977-14
 C3H4,propyne    1.042-13
 C3H5,allyl      1.126-15
 C3H6,propylene  1.648-14
 C3O2            1.895-12
 *H              5.5899-5
 HCO             1.3874-7
 HCCO            2.227-12
 HO2             4.823-15
 *H2             5.8677-1
 HCHO,formaldehy 9.2956-7
 HCOOH           9.7016-8
 H2O             6.0210-2
 H2O2            1.580-13
 *O              2.529-11
 *OH             3.9012-7
 *O2             1.156-12

  * THERMODYNAMIC PROPERTIES FITTED TO 20000.K









         THERMODYNAMIC EQUILIBRIUM COMBUSTION PROPERTIES AT ASSIGNED

                                     VOLUME

 CASE =                

             REACTANT                       MOLES         ENERGY      TEMP
                                                         KJ/KG-MOL      K
 FUEL        CH4                          0.8500000    -77028.260    300.000
 OXIDANT     O2                           2.3000000     -2439.995    300.000
 FUEL        C2H6                         0.1000000    -86248.563    300.000
 FUEL        C3H8                         0.0500000   -107037.874    300.000

 O/F=    1.18328  %FUEL= 45.802648  R,EQ.RATIO= 3.300000  PHI,EQ.RATIO= 3.300000

 THERMODYNAMIC PROPERTIES

 P, BAR            10.366
 T, K             1645.91
 RHO, KG/CU M    9.1700-1
 H, KJ/KG         -841.70
 U, KJ/KG        -1972.09
 G, KJ/KG        -27791.2
 S, KJ/(KG)(K)    16.3737

 M, (1/n)          12.106
 (dLV/dLP)t      -1.00060
 (dLV/dLT)p        1.0051
 Cp, KJ/(KG)(K)    2.9326
 GAMMAs            1.3089
 SON VEL,M/SEC     1216.4

 MOLE FRACTIONS

 *CH             5.323-16
 CH2             4.236-12
 CH3             1.0642-7
 CH2OH           2.513-11
 CH3O            1.462-12
 CH4             1.4803-4
 CH3OH           2.7357-9
 *CO             3.4417-1
 *CO2            8.7261-3
 COOH            9.610-10
 C2H             3.340-15
 C2H2,acetylene  2.2254-8
 C2H2,vinylidene 2.003-13
 CH2CO,ketene    1.6699-8
 O(CH)2O         1.333-13
 C2H3,vinyl      1.817-12
 CH3CO,acetyl    4.620-12
 C2H4            1.0527-8
 C2H4O,ethylen-o 1.235-15
 CH3CHO,ethanal  7.223-11
 CH3COOH         1.097-12
 C2H5            1.413-12
 C2H6            2.078-10
 C2H5OH          2.997-14
 CH3OCH3         1.223-16
 C2O             1.055-13
 C3H3,2-propynl  6.972-14
 C3H4,allene     1.934-13
 C3H4,propyne    5.230-13
 C3H4,cyclo-     2.784-16
 C3H5,allyl      6.080-15
 C3H6,propylene  1.738-13
 C3H6,cyclo-     3.908-16
 C3H6O,acetone   5.852-16
 C3H6O,propanal  2.373-16
 C3H8            7.982-16
 C3O2            2.148-12
 C4H2,butadiyne  3.197-16
 *H              2.0982-5
 HCO             6.9741-8
 HCCO            1.337-12
 HO2             3.158-16
 *H2             5.9846-1
 HCHO,formaldehy 9.2370-7
 HCOOH           7.9093-8
 H2O             4.8479-2
 H2O2            1.996-14
 *O              2.164-12
 *OH             8.8131-8
 *O2             7.945-14

  * THERMODYNAMIC PROPERTIES FITTED TO 20000.K









         THERMODYNAMIC EQUILIBRIUM COMBUSTION PROPERTIES AT ASSIGNED

                                     VOLUME

 CASE =                

             REACTANT                       MOLES         ENERGY      TEMP
                                                         KJ/KG-MOL      K
 FUEL        CH4                          0.8500000    -77028.260    300.000
 OXIDANT     O2                           2.3000000     -2439.995    300.000
 FUEL        C2H6                         0.1000000    -86248.563    300.000
 FUEL        C3H8                         0.0500000   -107037.874    300.000

 O/F=    1.14848  %FUEL= 46.544588  R,EQ.RATIO= 3.400000  PHI,EQ.RATIO= 3.400000

 THERMODYNAMIC PROPERTIES

 P, BAR            9.8698
 T, K             1543.41
 RHO, KG/CU M    9.1700-1
 H, KJ/KG         -926.49
 U, KJ/KG        -2002.80
 G, KJ/KG        -26219.1
 S, KJ/(KG)(K)    16.3875

 M, (1/n)          11.923
 (dLV/dLP)t      -1.00212
 (dLV/dLT)p        1.0191
 Cp, KJ/(KG)(K)    3.0195
 GAMMAs            1.3119
 SON VEL,M/SEC     1188.3

 MOLE FRACTIONS

 CH2             1.609-12
 CH3             1.3226-7
 CH2OH           1.580-11
 CH3O            7.649-13
 CH4             5.3980-4
 CH3OH           4.2547-9
 *CO             3.4504-1
 *CO2            7.7413-3
 COOH            3.539-10
 C2H             1.285-15
 C2H2,acetylene  4.4037-8
 C2H2,vinylidene 1.647-13
 CH2CO,ketene    2.9268-8
 O(CH)2O         1.140-13
 C2H3,vinyl      2.609-12
 CH3CO,acetyl    6.624-12
 C2H4            4.9978-8
 C2H4O,ethylen-o 2.199-15
 CH3CHO,ethanal  2.247-10
 CH3COOH         2.710-12
 C2H5            4.859-12
 C2H6            1.9057-9
 C2H5OH          1.283-13
 CH3OCH3         4.127-16
 C2O             3.543-14
 C3H3,2-propynl  1.997-13
 C3H4,allene     1.104-12
 C3H4,propyne    3.087-12
 C3H4,cyclo-     1.051-15
 C3H5,allyl      3.890-14
 C3H6,propylene  2.289-12
 C3H6,cyclo-     4.346-15
 C3H6O,acetone   5.569-15
 C3H6O,propanal  1.884-15
 C3H8            1.902-14
 C3O2            2.508-12
 C4H2,butadiyne  1.216-15
 C4H6,butadiene  8.337-16
 *H              7.2692-6
 HCO             3.3125-8
 HCCO            7.794-13
 *H2             6.0884-1
 HCHO,formaldehy 9.1670-7
 HCOOH           6.3135-8
 H2O             3.7830-2
 H2O2            2.090-15
 *O              1.504-13
 *OH             1.7439-8
 *O2             4.317-15

  * THERMODYNAMIC PROPERTIES FITTED TO 20000.K









         THERMODYNAMIC EQUILIBRIUM COMBUSTION PROPERTIES AT ASSIGNED

                                     VOLUME

 CASE =                

             REACTANT                       MOLES         ENERGY      TEMP
                                                         KJ/KG-MOL      K
 FUEL        CH4                          0.8500000    -77028.260    300.000
 OXIDANT     O2                           2.3000000     -2439.995    300.000
 FUEL        C2H6                         0.1000000    -86248.563    300.000
 FUEL        C3H8                         0.0500000   -107037.874    300.000

 O/F=    1.11566  %FUEL= 47.266487  R,EQ.RATIO= 3.500000  PHI,EQ.RATIO= 3.500000

 THERMODYNAMIC PROPERTIES

 P, BAR            9.4044
 T, K             1452.41
 RHO, KG/CU M    9.1700-1
 H, KJ/KG        -1007.11
 U, KJ/KG        -2032.68
 G, KJ/KG        -24811.4
 S, KJ/(KG)(K)    16.3895

 M, (1/n)          11.775
 (dLV/dLP)t      -1.00740
 (dLV/dLT)p        1.0709
 Cp, KJ/(KG)(K)    3.3790
 GAMMAs            1.3025
 SON VEL,M/SEC     1155.8

 MOLE FRACTIONS

 CH2             6.123-13
 CH3             1.6572-7
 CH2OH           9.859-12
 CH3O            3.980-13
 CH4             2.0009-3
 CH3OH           6.6011-9
 *CO             3.4556-1
 *CO2            6.7912-3
 COOH            1.280-10
 C2H             5.040-16
 C2H2,acetylene  8.9602-8
 C2H2,vinylidene 1.381-13
 CH2CO,ketene    5.2092-8
 O(CH)2O         9.762-14
 C2H3,vinyl      3.835-12
 CH3CO,acetyl    9.636-12
 C2H4            2.4467-7
 C2H4O,ethylen-o 3.975-15
 CH3CHO,ethanal  7.115-10
 CH3COOH         6.750-12
 C2H5            1.717-11
 C2H6            1.8059-8
 C2H5OH          5.590-13
 CH3OCH3         1.415-15
 C2O             1.199-14
 C3H3,2-propynl  5.968-13
 C3H4,allene     6.602-12
 C3H4,propyne    1.909-11
 C3H4,cyclo-     4.149-15
 C3H5,allyl      2.610-13
 C3H6,propylene  3.170-11
 C3H6,cyclo-     5.082-14
 C3H6O,acetone   5.497-14
 C3H6O,propanal  1.551-14
 C3H7,n-propyl   4.271-16
 C3H7,i-propyl   4.587-16
 C3H8            4.775-13
 C3O2            2.986-12
 C4H2,butadiyne  4.918-15
 C4H6,butadiene  1.731-14
 C4H6,1butyne    5.422-16
 C4H6,2butyne    7.275-16
 C4H8,1-butene   7.823-16
 C4H8,cis2-buten 3.990-16
 C4H8,tr2-butene 4.489-16
 C4H8,isobutene  5.555-16
 C6H6            1.273-16
 *H              2.5006-6
 HCO             1.5628-8
 HCCO            4.588-13
 *H2             6.1669-1
 HCHO,formaldehy 9.0725-7
 HCOOH           4.9825-8
 H2O             2.8959-2
 H2O2            2.100-16
 *O              1.017-14
 *OH             3.3653-9
 *O2             2.248-16

  * THERMODYNAMIC PROPERTIES FITTED TO 20000.K









         THERMODYNAMIC EQUILIBRIUM COMBUSTION PROPERTIES AT ASSIGNED

                                     VOLUME

 CASE =                

             REACTANT                       MOLES         ENERGY      TEMP
                                                         KJ/KG-MOL      K
 FUEL        CH4                          0.8500000    -77028.260    300.000
 OXIDANT     O2                           2.3000000     -2439.995    300.000
 FUEL        C2H6                         0.1000000    -86248.563    300.000
 FUEL        C3H8                         0.0500000   -107037.874    300.000

 O/F=    1.08467  %FUEL= 47.969149  R,EQ.RATIO= 3.600000  PHI,EQ.RATIO= 3.600000

 THERMODYNAMIC PROPERTIES

 P, BAR            9.0274
 T, K             1384.43
 RHO, KG/CU M    9.1700-1
 H, KJ/KG        -1077.32
 U, KJ/KG        -2061.76
 G, KJ/KG        -23756.0
 S, KJ/(KG)(K)    16.3812

 M, (1/n)          11.693
 (dLV/dLP)t      -1.01846
 (dLV/dLT)p        1.1864
 Cp, KJ/(KG)(K)    4.2422
 GAMMAs            1.2779
 SON VEL,M/SEC     1121.6

 MOLE FRACTIONS

 CH2             2.723-13
 CH3             1.9825-7
 CH2OH           6.584-12
 CH3O            2.291-13
 CH4             5.8999-3
 CH3OH           9.3924-9
 *CO             3.4513-1
 *CO2            6.0704-3
 COOH            5.452-11
 C2H             2.309-16
 C2H2,acetylene  1.6121-7
 C2H2,vinylidene 1.186-13
 CH2CO,ketene    8.3654-8
 O(CH)2O         8.521-14
 C2H3,vinyl      5.243-12
 CH3CO,acetyl    1.306-11
 C2H4            9.0935-7
 C2H4O,ethylen-o 6.441-15
 CH3CHO,ethanal  1.8362-9
 CH3COOH         1.428-11
 C2H5            4.849-11
 C2H6            1.1575-7
 C2H5OH          1.873-12
 CH3OCH3         3.884-15
 C2O             4.860-15
 C3H3,2-propynl  1.475-12
 C3H4,allene     2.903-11
 C3H4,propyne    8.631-11
 C3H4,cyclo-     1.291-14
 C3H5,allyl      1.261-12
 C3H6,propylene  2.790-10
 C3H6,cyclo-     3.889-13
 C3H6O,acetone   3.643-13
 C3H6O,propanal  8.846-14
 C3H7,n-propyl   2.678-15
 C3H7,i-propyl   3.019-15
 C3H8            6.866-12
 C3H8O,1propanol 1.033-16
 C3H8O,2propanol 1.352-16
 C3O2            3.449-12
 C4H2,butadiyne  1.571-14
 C4H6,butadiene  2.141-13
 C4H6,1butyne    5.481-15
 C4H6,2butyne    8.105-15
 C4H6,cyclo-     1.720-16
 C4H8,1-butene   1.546-14
 C4H8,cis2-buten 8.243-15
 C4H8,tr2-butene 9.286-15
 C4H8,isobutene  1.175-14
 C4H10,n-butane  4.095-16
 C4H10,isobutane 1.633-16
 C5H6,1,3cyclo-  1.162-15
 C6H6            8.074-15
 *H              1.0273-6
 HCO             8.3169-9
 HCCO            2.939-13
 *H2             6.1991-1
 HCHO,formaldehy 8.9271-7
 HCOOH           4.0638-8
 H2O             2.2978-2
 *O              1.078-15
 *OH             8.507-10

  * THERMODYNAMIC PROPERTIES FITTED TO 20000.K



