
 *******************************************************************************

         NASA-GLENN CHEMICAL EQUILIBRIUM PROGRAM CEA2, MAY 21, 2004
                   BY  BONNIE MCBRIDE AND SANFORD GORDON
      REFS: NASA RP-1311, PART I, 1994 AND NASA RP-1311, PART II, 1996

 *******************************************************************************



 problem    phi,eq.ratio=0.5,0.6,0.7,0.8,0.9,1,1.1,1.2,1.3,1.4,1.5,1.6,1.7,1.8,1.
 9,2,
       uv   rho,kg/m**3=0.917,  t,k=3800
 react
   fuel=CH4 moles=0.85 t,k=300
   oxid=O2 moles=2.3 t,k=300
   fuel=C2H6 moles=0.1 t,k=300
   fuel=C3H8 moles=0.05 t,k=300
 output
      trace=1e-16 siunits short
 end




         THERMODYNAMIC EQUILIBRIUM COMBUSTION PROPERTIES AT ASSIGNED

                                     VOLUME

 CASE =                

             REACTANT                       MOLES         ENERGY      TEMP
                                                         KJ/KG-MOL      K
 FUEL        CH4                          0.8500000    -77028.260    300.000
 OXIDANT     O2                           2.3000000     -2439.995    300.000
 FUEL        C2H6                         0.1000000    -86248.563    300.000
 FUEL        C3H8                         0.0500000   -107037.874    300.000

 O/F=    7.80965  %FUEL= 11.351192  R,EQ.RATIO= 0.500000  PHI,EQ.RATIO= 0.500000

 THERMODYNAMIC PROPERTIES

 P, BAR            9.3501
 T, K             3240.31
 RHO, KG/CU M    9.1700-1
 H, KJ/KG          473.54
 U, KJ/KG         -546.09
 G, KJ/KG        -33990.7
 S, KJ/(KG)(K)    10.6361

 M, (1/n)          26.423
 (dLV/dLP)t      -1.03807
 (dLV/dLT)p        1.7504
 Cp, KJ/(KG)(K)    6.4674
 GAMMAs            1.1249
 SON VEL,M/SEC     1071.0

 MOLE FRACTIONS

 *C              7.372-12
 *CH             8.441-13
 CH2             4.829-13
 CH3             2.560-13
 CH2OH           3.167-13
 CH3O            8.683-14
 CH4             2.112-14
 CH3OH           6.263-15
 *CO             5.5366-2
 *CO2            1.3559-1
 COOH            1.3327-6
 CH2CO,ketene    2.907-15
 O(CH)2O         1.776-16
 HO(CO)2OH       1.386-15
 C2O             2.096-13
 *H              1.2339-2
 HCO             3.8721-7
 HCCO            5.808-15
 HO2             2.8150-4
 *H2             1.4491-2
 HCHO,formaldehy 3.1204-9
 HCOOH           5.4812-8
 H2O             2.7891-1
 H2O2            1.2415-5
 *O              4.7308-2
 *OH             1.0074-1
 *O2             3.5496-1
 O3              1.4588-6

  * THERMODYNAMIC PROPERTIES FITTED TO 20000.K









         THERMODYNAMIC EQUILIBRIUM COMBUSTION PROPERTIES AT ASSIGNED

                                     VOLUME

 CASE =                

             REACTANT                       MOLES         ENERGY      TEMP
                                                         KJ/KG-MOL      K
 FUEL        CH4                          0.8500000    -77028.260    300.000
 OXIDANT     O2                           2.3000000     -2439.995    300.000
 FUEL        C2H6                         0.1000000    -86248.563    300.000
 FUEL        C3H8                         0.0500000   -107037.874    300.000

 O/F=    6.50804  %FUEL= 13.319057  R,EQ.RATIO= 0.600000  PHI,EQ.RATIO= 0.600000

 THERMODYNAMIC PROPERTIES

 P, BAR            10.070
 T, K             3334.23
 RHO, KG/CU M    9.1700-1
 H, KJ/KG          470.65
 U, KJ/KG         -627.55
 G, KJ/KG        -36532.4
 S, KJ/(KG)(K)    11.0979

 M, (1/n)          25.244
 (dLV/dLP)t      -1.04826
 (dLV/dLT)p        1.9181
 Cp, KJ/(KG)(K)    7.6639
 GAMMAs            1.1234
 SON VEL,M/SEC     1110.7

 MOLE FRACTIONS

 *C              2.805-11
 *CH             3.650-12
 CH2             2.156-12
 CH3             1.145-12
 CH2OH           1.085-12
 CH3O            3.139-13
 CH4             9.893-14
 CH3OH           2.299-14
 *CO             7.9796-2
 *CO2            1.3427-1
 COOH            2.0549-6
 C2H2,acetylene  3.433-16
 CH2CO,ketene    1.458-14
 O(CH)2O         6.932-16
 HO(CO)2OH       2.661-15
 C2O             9.019-13
 C3O2            2.705-16
 *H              1.8840-2
 HCO             8.4654-7
 HCCO            2.854-14
 HO2             2.8416-4
 *H2             2.2477-2
 HCHO,formaldehy 7.5470-9
 HCOOH           9.3067-8
 H2O             3.0330-1
 H2O2            1.3866-5
 *O              5.2430-2
 *OH             1.1420-1
 *O2             2.7439-1
 O3              1.2416-6

  * THERMODYNAMIC PROPERTIES FITTED TO 20000.K









         THERMODYNAMIC EQUILIBRIUM COMBUSTION PROPERTIES AT ASSIGNED

                                     VOLUME

 CASE =                

             REACTANT                       MOLES         ENERGY      TEMP
                                                         KJ/KG-MOL      K
 FUEL        CH4                          0.8500000    -77028.260    300.000
 OXIDANT     O2                           2.3000000     -2439.995    300.000
 FUEL        C2H6                         0.1000000    -86248.563    300.000
 FUEL        C3H8                         0.0500000   -107037.874    300.000

 O/F=    5.57832  %FUEL= 15.201451  R,EQ.RATIO= 0.700000  PHI,EQ.RATIO= 0.700000

 THERMODYNAMIC PROPERTIES

 P, BAR            10.733
 T, K             3403.72
 RHO, KG/CU M    9.1700-1
 H, KJ/KG          464.95
 U, KJ/KG         -705.46
 G, KJ/KG        -38768.7
 S, KJ/(KG)(K)    11.5267

 M, (1/n)          24.180
 (dLV/dLP)t      -1.05664
 (dLV/dLT)p        2.0491
 Cp, KJ/(KG)(K)    8.6843
 GAMMAs            1.1231
 SON VEL,M/SEC     1146.5

 MOLE FRACTIONS

 *C              7.556-11
 *CH             1.106-11
 CH2             6.866-12
 CH3             3.754-12
 CH2OH           2.834-12
 CH3O            8.516-13
 CH4             3.445-13
 CH3OH           6.479-14
 *CO             1.0434-1
 *CO2            1.2968-1
 COOH            2.7858-6
 C2H             3.875-16
 C2H2,acetylene  1.658-15
 CH2CO,ketene    5.157-14
 O(CH)2O         1.976-15
 HO(CO)2OH       4.258-15
 C2O             2.710-12
 C3O2            9.410-16
 *H              2.5791-2
 HCO             1.5256-6
 HCCO            9.678-14
 HO2             2.6889-4
 *H2             3.1967-2
 HCHO,formaldehy 1.5010-8
 HCOOH           1.3879-7
 H2O             3.2308-1
 H2O2            1.4479-5
 *O              5.3604-2
 *OH             1.2190-1
 *O2             2.0935-1
 O3              9.7718-7

  * THERMODYNAMIC PROPERTIES FITTED TO 20000.K









         THERMODYNAMIC EQUILIBRIUM COMBUSTION PROPERTIES AT ASSIGNED

                                     VOLUME

 CASE =                

             REACTANT                       MOLES         ENERGY      TEMP
                                                         KJ/KG-MOL      K
 FUEL        CH4                          0.8500000    -77028.260    300.000
 OXIDANT     O2                           2.3000000     -2439.995    300.000
 FUEL        C2H6                         0.1000000    -86248.563    300.000
 FUEL        C3H8                         0.0500000   -107037.874    300.000

 O/F=    4.88103  %FUEL= 17.003826  R,EQ.RATIO= 0.800000  PHI,EQ.RATIO= 0.800000

 THERMODYNAMIC PROPERTIES

 P, BAR            11.348
 T, K             3455.71
 RHO, KG/CU M    9.1700-1
 H, KJ/KG          457.41
 U, KJ/KG         -780.06
 G, KJ/KG        -40757.1
 S, KJ/(KG)(K)    11.9265

 M, (1/n)          23.219
 (dLV/dLP)t      -1.06312
 (dLV/dLT)p        2.1455
 Cp, KJ/(KG)(K)    9.5306
 GAMMAs            1.1234
 SON VEL,M/SEC     1179.1

 MOLE FRACTIONS

 *C              1.632-10
 *CH             2.670-11
 CH2             1.764-11
 CH3             1.011-11
 CH2OH           6.218-12
 CH3O            1.921-12
 CH4             9.959-13
 CH3OH           1.542-13
 *CO             1.2833-1
 *CO2            1.2303-1
 COOH            3.4664-6
 *C2             1.449-16
 C2H             1.437-15
 C2H2,acetylene  6.134-15
 CH2CO,ketene    1.463-13
 O(CH)2O         4.602-15
 HO(CO)2OH       6.026-15
 C2O             6.482-12
 C3O2            2.560-15
 *H              3.2900-2
 HCO             2.4287-6
 HCCO            2.593-13
 HO2             2.4204-4
 *H2             4.3038-2
 HCHO,formaldehy 2.6349-8
 HCOOH           1.8998-7
 H2O             3.3886-1
 H2O2            1.4368-5
 *O              5.1773-2
 *OH             1.2470-1
 *O2             1.5711-1
 O3              7.2062-7

  * THERMODYNAMIC PROPERTIES FITTED TO 20000.K









         THERMODYNAMIC EQUILIBRIUM COMBUSTION PROPERTIES AT ASSIGNED

                                     VOLUME

 CASE =                

             REACTANT                       MOLES         ENERGY      TEMP
                                                         KJ/KG-MOL      K
 FUEL        CH4                          0.8500000    -77028.260    300.000
 OXIDANT     O2                           2.3000000     -2439.995    300.000
 FUEL        C2H6                         0.1000000    -86248.563    300.000
 FUEL        C3H8                         0.0500000   -107037.874    300.000

 O/F=    4.33869  %FUEL= 18.731177  R,EQ.RATIO= 0.900000  PHI,EQ.RATIO= 0.900000

 THERMODYNAMIC PROPERTIES

 P, BAR            11.920
 T, K             3493.78
 RHO, KG/CU M    9.1700-1
 H, KJ/KG          448.38
 U, KJ/KG         -851.56
 G, KJ/KG        -42526.3
 S, KJ/(KG)(K)    12.3003

 M, (1/n)          22.346
 (dLV/dLP)t      -1.06759
 (dLV/dLT)p        2.2078
 Cp, KJ/(KG)(K)   10.1936
 GAMMAs            1.1240
 SON VEL,M/SEC     1208.8

 MOLE FRACTIONS

 *C              3.014-10
 *CH             5.496-11
 CH2             3.905-11
 CH3             2.383-11
 CH2OH           1.208-11
 CH3O            3.809-12
 CH4             2.542-12
 CH3OH           3.270-13
 *CO             1.5139-1
 *CO2            1.1510-1
 COOH            4.0500-6
 *C2             4.119-16
 C2H             4.325-15
 C2H2,acetylene  1.898-14
 C2H2,vinylidene 1.576-16
 CH2CO,ketene    3.572-13
 O(CH)2O         9.322-15
 HO(CO)2OH       7.791-15
 CH3CO,acetyl    1.635-16
 C2O             1.323-11
 C3O2            5.889-15
 *H              3.9903-2
 HCO             3.5447-6
 HCCO            5.909-13
 HO2             2.0848-4
 *H2             5.5827-2
 HCHO,formaldehy 4.2440-8
 HCOOH           2.4454-7
 H2O             3.5103-1
 H2O2            1.3655-5
 *O              4.7743-2
 *OH             1.2329-1
 *O2             1.1548-1
 O3              4.9954-7

  * THERMODYNAMIC PROPERTIES FITTED TO 20000.K









         THERMODYNAMIC EQUILIBRIUM COMBUSTION PROPERTIES AT ASSIGNED

                                     VOLUME

 CASE =                

             REACTANT                       MOLES         ENERGY      TEMP
                                                         KJ/KG-MOL      K
 FUEL        CH4                          0.8500000    -77028.260    300.000
 OXIDANT     O2                           2.3000000     -2439.995    300.000
 FUEL        C2H6                         0.1000000    -86248.563    300.000
 FUEL        C3H8                         0.0500000   -107037.874    300.000

 O/F=    3.90482  %FUEL= 20.388093  R,EQ.RATIO= 1.000000  PHI,EQ.RATIO= 1.000000

 THERMODYNAMIC PROPERTIES

 P, BAR            12.453
 T, K             3519.76
 RHO, KG/CU M    9.1700-1
 H, KJ/KG          437.88
 U, KJ/KG         -920.14
 G, KJ/KG        -44089.0
 S, KJ/(KG)(K)    12.6505

 M, (1/n)          21.550
 (dLV/dLP)t      -1.06987
 (dLV/dLT)p        2.2343
 Cp, KJ/(KG)(K)   10.6490
 GAMMAs            1.1249
 SON VEL,M/SEC     1236.0

 MOLE FRACTIONS

 *C              4.940-10
 *CH             1.003-10
 CH2             7.750-11
 CH3             5.107-11
 CH2OH           2.147-11
 CH3O            6.859-12
 CH4             5.953-12
 CH3OH           6.379-13
 *CO             1.7330-1
 *CO2            1.0642-1
 COOH            4.5008-6
 *C2             9.890-16
 C2H             1.118-14
 C2H2,acetylene  5.174-14
 C2H2,vinylidene 4.485-16
 CH2CO,ketene    7.840-13
 O(CH)2O         1.703-14
 HO(CO)2OH       9.378-15
 CH3CO,acetyl    4.174-16
 C2O             2.402-11
 C3O2            1.199-14
 *H              4.6529-2
 HCO             4.8466-6
 HCCO            1.196-12
 HO2             1.7203-4
 *H2             7.0520-2
 HCHO,formaldehy 6.4199-8
 HCOOH           3.0032-7
 H2O             3.5982-1
 H2O2            1.2463-5
 *O              4.2207-2
 *OH             1.1827-1
 *O2             8.2738-2
 O3              3.2474-7

  * THERMODYNAMIC PROPERTIES FITTED TO 20000.K









         THERMODYNAMIC EQUILIBRIUM COMBUSTION PROPERTIES AT ASSIGNED

                                     VOLUME

 CASE =                

             REACTANT                       MOLES         ENERGY      TEMP
                                                         KJ/KG-MOL      K
 FUEL        CH4                          0.8500000    -77028.260    300.000
 OXIDANT     O2                           2.3000000     -2439.995    300.000
 FUEL        C2H6                         0.1000000    -86248.563    300.000
 FUEL        C3H8                         0.0500000   -107037.874    300.000

 O/F=    3.54984  %FUEL= 21.978797  R,EQ.RATIO= 1.100000  PHI,EQ.RATIO= 1.100000

 THERMODYNAMIC PROPERTIES

 P, BAR            12.945
 T, K             3534.41
 RHO, KG/CU M    9.1700-1
 H, KJ/KG          425.65
 U, KJ/KG         -985.99
 G, KJ/KG        -45447.2
 S, KJ/(KG)(K)    12.9789

 M, (1/n)          20.818
 (dLV/dLP)t      -1.06967
 (dLV/dLT)p        2.2217
 Cp, KJ/(KG)(K)   10.8588
 GAMMAs            1.1260
 SON VEL,M/SEC     1260.7

 MOLE FRACTIONS

 *C              7.330-10
 *CH             1.659-10
 CH2             1.411-10
 CH3             1.019-10
 CH2OH           3.556-11
 CH3O            1.144-11
 CH4             1.311-11
 CH3OH           1.169-12
 CH3OOH          1.310-16
 *CO             1.9392-1
 *CO2            9.7379-2
 COOH            4.7919-6
 *C2             2.076-15
 C2H             2.567-14
 C2H2,acetylene  1.286-13
 C2H2,vinylidene 1.141-15
 CH2CO,ketene    1.590-12
 O(CH)2O         2.872-14
 HO(CO)2OH       1.063-14
 CH3CO,acetyl    9.670-16
 C2O             3.973-11
 C3O2            2.227-14
 *H              5.2475-2
 HCO             6.2886-6
 HCCO            2.206-12
 HO2             1.3573-4
 *H2             8.7337-2
 HCHO,formaldehy 9.2554-8
 HCOOH           3.5504-7
 H2O             3.6531-1
 H2O2            1.0925-5
 *O              3.5776-2
 *OH             1.1019-1
 *O2             5.7452-2
 O3              1.9675-7

  * THERMODYNAMIC PROPERTIES FITTED TO 20000.K









         THERMODYNAMIC EQUILIBRIUM COMBUSTION PROPERTIES AT ASSIGNED

                                     VOLUME

 CASE =                

             REACTANT                       MOLES         ENERGY      TEMP
                                                         KJ/KG-MOL      K
 FUEL        CH4                          0.8500000    -77028.260    300.000
 OXIDANT     O2                           2.3000000     -2439.995    300.000
 FUEL        C2H6                         0.1000000    -86248.563    300.000
 FUEL        C3H8                         0.0500000   -107037.874    300.000

 O/F=    3.25402  %FUEL= 23.507179  R,EQ.RATIO= 1.200000  PHI,EQ.RATIO= 1.200000

 THERMODYNAMIC PROPERTIES

 P, BAR            13.393
 T, K             3537.79
 RHO, KG/CU M    9.1700-1
 H, KJ/KG          411.29
 U, KJ/KG        -1049.25
 G, KJ/KG        -46595.6
 S, KJ/(KG)(K)    13.2871

 M, (1/n)          20.140
 (dLV/dLP)t      -1.06681
 (dLV/dLT)p        2.1670
 Cp, KJ/(KG)(K)   10.7817
 GAMMAs            1.1274
 SON VEL,M/SEC     1283.2

 MOLE FRACTIONS

 *C              9.956-10
 *CH             2.522-10
 CH2             2.392-10
 CH3             1.926-10
 CH2OH           5.556-11
 CH3O            1.791-11
 CH4             2.765-11
 CH3OH           2.040-12
 CH3OOH          1.906-16
 *CO             2.1316-1
 *CO2            8.8254-2
 COOH            4.9065-6
 *C2             3.884-15
 C2H             5.350-14
 C2H2,acetylene  2.977-13
 C2H2,vinylidene 2.658-15
 CH2CO,ketene    3.035-12
 O(CH)2O         4.536-14
 HO(CO)2OH       1.143-14
 C2H3,vinyl      1.289-16
 CH3CO,acetyl    2.076-15
 C2O             6.077-11
 C3O2            3.842-14
 *H              5.7399-2
 HCO             7.8033-6
 HCCO            3.776-12
 HO2             1.0198-4
 *H2             1.0651-1
 HCHO,formaldehy 1.2839-7
 HCOOH           4.0632-7
 H2O             3.6753-1
 H2O2            9.1758-6
 *O              2.9002-2
 *OH             9.9610-2
 *O2             3.8416-2
 O3              1.1010-7

  * THERMODYNAMIC PROPERTIES FITTED TO 20000.K









         THERMODYNAMIC EQUILIBRIUM COMBUSTION PROPERTIES AT ASSIGNED

                                     VOLUME

 CASE =                

             REACTANT                       MOLES         ENERGY      TEMP
                                                         KJ/KG-MOL      K
 FUEL        CH4                          0.8500000    -77028.260    300.000
 OXIDANT     O2                           2.3000000     -2439.995    300.000
 FUEL        C2H6                         0.1000000    -86248.563    300.000
 FUEL        C3H8                         0.0500000   -107037.874    300.000

 O/F=    3.00371  %FUEL= 24.976831  R,EQ.RATIO= 1.300000  PHI,EQ.RATIO= 1.300000

 THERMODYNAMIC PROPERTIES

 P, BAR            13.794
 T, K             3529.51
 RHO, KG/CU M    9.1700-1
 H, KJ/KG          394.22
 U, KJ/KG        -1110.08
 G, KJ/KG        -47523.2
 S, KJ/(KG)(K)    13.5762

 M, (1/n)          19.508
 (dLV/dLP)t      -1.06132
 (dLV/dLT)p        2.0710
 Cp, KJ/(KG)(K)   10.3961
 GAMMAs            1.1293
 SON VEL,M/SEC     1303.4

 MOLE FRACTIONS

 *C              1.2428-9
 *CH             3.540-10
 CH2             3.804-10
 CH3             3.477-10
 CH2OH           8.251-11
 CH3O            2.649-11
 CH4             5.647-11
 CH3OH           3.421-12
 CH3OOH          2.579-16
 *CO             2.3093-1
 *CO2            7.9281-2
 COOH            4.8392-6
 *C2             6.545-15
 C2H             1.025-13
 C2H2,acetylene  6.523-13
 C2H2,vinylidene 5.745-15
 CH2CO,ketene    5.519-12
 O(CH)2O         6.776-14
 HO(CO)2OH       1.170-14
 C2H3,vinyl      3.130-16
 CH3CO,acetyl    4.188-15
 C2O             8.671-11
 C3O2            6.241-14
 *H              6.0928-2
 HCO             9.2998-6
 HCCO            6.056-12
 HO2             7.2558-5
 *H2             1.2824-1
 HCHO,formaldehy 1.7241-7
 HCOOH           4.5173-7
 H2O             3.6641-1
 H2O2            7.3567-6
 *O              2.2388-2
 *OH             8.7172-2
 *O2             2.4564-2
 O3              5.6280-8

  * THERMODYNAMIC PROPERTIES FITTED TO 20000.K









         THERMODYNAMIC EQUILIBRIUM COMBUSTION PROPERTIES AT ASSIGNED

                                     VOLUME

 CASE =                

             REACTANT                       MOLES         ENERGY      TEMP
                                                         KJ/KG-MOL      K
 FUEL        CH4                          0.8500000    -77028.260    300.000
 OXIDANT     O2                           2.3000000     -2439.995    300.000
 FUEL        C2H6                         0.1000000    -86248.563    300.000
 FUEL        C3H8                         0.0500000   -107037.874    300.000

 O/F=    2.78916  %FUEL= 26.391076  R,EQ.RATIO= 1.400000  PHI,EQ.RATIO= 1.400000

 THERMODYNAMIC PROPERTIES

 P, BAR            14.143
 T, K             3508.97
 RHO, KG/CU M    9.1700-1
 H, KJ/KG          373.75
 U, KJ/KG        -1168.62
 G, KJ/KG        -48216.4
 S, KJ/(KG)(K)    13.8474

 M, (1/n)          18.916
 (dLV/dLP)t      -1.05373
 (dLV/dLT)p        1.9413
 Cp, KJ/(KG)(K)    9.7273
 GAMMAs            1.1319
 SON VEL,M/SEC     1321.3

 MOLE FRACTIONS

 *C              1.4255-9
 *CH             4.596-10
 CH2             5.697-10
 CH3             6.038-10
 CH2OH           1.169-10
 CH3O            3.714-11
 CH4             1.127-10
 CH3OH           5.549-12
 CH3OOH          3.251-16
 *CO             2.4717-1
 *CO2            7.0654-2
 COOH            4.5983-6
 *C2             9.974-15
 C2H             1.816-13
 C2H2,acetylene  1.365-12
 C2H2,vinylidene 1.163-14
 CH2CO,ketene    9.642-12
 O(CH)2O         9.629-14
 HO(CO)2OH       1.144-14
 C2H3,vinyl      7.152-16
 CH3CO,acetyl    8.008-15
 C2H4            1.735-16
 CH3CHO,ethanal  1.330-16
 C2O             1.159-10
 C3O2            9.624-14
 *H              6.2697-2
 HCO             1.0665-5
 HCCO            9.158-12
 HO2             4.8565-5
 *H2             1.5265-1
 HCHO,formaldehy 2.2498-7
 HCOOH           4.8886-7
 H2O             3.6186-1
 H2O2            5.6036-6
 *O              1.6366-2
 *OH             7.3621-2
 *O2             1.4913-2
 O3              2.5964-8

  * THERMODYNAMIC PROPERTIES FITTED TO 20000.K









         THERMODYNAMIC EQUILIBRIUM COMBUSTION PROPERTIES AT ASSIGNED

                                     VOLUME

 CASE =                

             REACTANT                       MOLES         ENERGY      TEMP
                                                         KJ/KG-MOL      K
 FUEL        CH4                          0.8500000    -77028.260    300.000
 OXIDANT     O2                           2.3000000     -2439.995    300.000
 FUEL        C2H6                         0.1000000    -86248.563    300.000
 FUEL        C3H8                         0.0500000   -107037.874    300.000

 O/F=    2.60322  %FUEL= 27.752987  R,EQ.RATIO= 1.500000  PHI,EQ.RATIO= 1.500000

 THERMODYNAMIC PROPERTIES

 P, BAR            14.435
 T, K             3475.62
 RHO, KG/CU M    9.1700-1
 H, KJ/KG          349.15
 U, KJ/KG        -1224.99
 G, KJ/KG        -48662.4
 S, KJ/(KG)(K)    14.1015

 M, (1/n)          18.358
 (dLV/dLP)t      -1.04500
 (dLV/dLT)p        1.7931
 Cp, KJ/(KG)(K)    8.8596
 GAMMAs            1.1355
 SON VEL,M/SEC     1337.0

 MOLE FRACTIONS

 *C              1.4976-9
 *CH             5.511-10
 CH2             8.037-10
 CH3             1.0115-9
 CH2OH           1.582-10
 CH3O            4.940-11
 CH4             2.208-10
 CH3OH           8.728-12
 CH3OOH          3.814-16
 *CO             2.6183-1
 *CO2            6.2538-2
 COOH            4.2078-6
 *C2             1.374-14
 C2H             2.983-13
 C2H2,acetylene  2.746-12
 C2H2,vinylidene 2.212-14
 CH2CO,ketene    1.627-11
 O(CH)2O         1.306-13
 HO(CO)2OH       1.070-14
 C2H3,vinyl      1.546-15
 CH3CO,acetyl    1.458-14
 C2H4            4.451-16
 CH3CHO,ethanal  2.800-16
 C2O             1.454-10
 C3O2            1.417-13
 *H              6.2417-2
 HCO             1.1775-5
 HCCO            1.309-11
 HO2             3.0383-5
 *H2             1.7972-1
 HCHO,formaldehy 2.8587-7
 HCOOH           5.1558-7
 H2O             3.5384-1
 H2O2            4.0354-6
 *O              1.1265-2
 *OH             5.9799-2
 *O2             8.5393-3
 O3              1.0688-8

  * THERMODYNAMIC PROPERTIES FITTED TO 20000.K









         THERMODYNAMIC EQUILIBRIUM COMBUSTION PROPERTIES AT ASSIGNED

                                     VOLUME

 CASE =                

             REACTANT                       MOLES         ENERGY      TEMP
                                                         KJ/KG-MOL      K
 FUEL        CH4                          0.8500000    -77028.260    300.000
 OXIDANT     O2                           2.3000000     -2439.995    300.000
 FUEL        C2H6                         0.1000000    -86248.563    300.000
 FUEL        C3H8                         0.0500000   -107037.874    300.000

 O/F=    2.44051  %FUEL= 29.065418  R,EQ.RATIO= 1.600000  PHI,EQ.RATIO= 1.600000

 THERMODYNAMIC PROPERTIES

 P, BAR            14.664
 T, K             3429.22
 RHO, KG/CU M    9.1700-1
 H, KJ/KG          319.79
 U, KJ/KG        -1279.31
 G, KJ/KG        -48853.0
 S, KJ/(KG)(K)    14.3393

 M, (1/n)          17.830
 (dLV/dLP)t      -1.03625
 (dLV/dLT)p        1.6443
 Cp, KJ/(KG)(K)    7.9141
 GAMMAs            1.1403
 SON VEL,M/SEC     1350.4

 MOLE FRACTIONS

 *C              1.4348-9
 *CH             6.081-10
 CH2             1.0666-9
 CH3             1.6356-9
 CH2OH           2.045-10
 CH3O            6.230-11
 CH4             4.260-10
 CH3OH           1.334-11
 CH3OOH          4.157-16
 *CO             2.7488-1
 *CO2            5.5063-2
 COOH            3.7064-6
 *C2             1.706-14
 C2H             4.543-13
 C2H2,acetylene  5.320-12
 C2H2,vinylidene 3.959-14
 CH2CO,ketene    2.659-11
 O(CH)2O         1.694-13
 HO(CO)2OH       9.583-15
 C2H3,vinyl      3.169-15
 CH3CO,acetyl    2.534-14
 C2H4            1.110-15
 CH3CHO,ethanal  5.710-16
 CH3COOH         1.675-16
 C2O             1.711-10
 C3O2            2.001-13
 *H              5.9972-2
 HCO             1.2511-5
 HCCO            1.771-11
 HO2             1.7672-5
 *H2             2.0919-1
 HCHO,formaldehy 3.5400-7
 HCOOH           5.3042-7
 H2O             3.4244-1
 H2O2            2.7364-6
 *O              7.2646-3
 *OH             4.6573-2
 *O2             4.5895-3
 O3              3.8915-9

  * THERMODYNAMIC PROPERTIES FITTED TO 20000.K









         THERMODYNAMIC EQUILIBRIUM COMBUSTION PROPERTIES AT ASSIGNED

                                     VOLUME

 CASE =                

             REACTANT                       MOLES         ENERGY      TEMP
                                                         KJ/KG-MOL      K
 FUEL        CH4                          0.8500000    -77028.260    300.000
 OXIDANT     O2                           2.3000000     -2439.995    300.000
 FUEL        C2H6                         0.1000000    -86248.563    300.000
 FUEL        C3H8                         0.0500000   -107037.874    300.000

 O/F=    2.29696  %FUEL= 30.331017  R,EQ.RATIO= 1.700000  PHI,EQ.RATIO= 1.700000

 THERMODYNAMIC PROPERTIES

 P, BAR            14.827
 T, K             3370.10
 RHO, KG/CU M    9.1700-1
 H, KJ/KG          285.18
 U, KJ/KG        -1331.70
 G, KJ/KG        -48788.7
 S, KJ/(KG)(K)    14.5616

 M, (1/n)          17.330
 (dLV/dLP)t      -1.02836
 (dLV/dLT)p        1.5092
 Cp, KJ/(KG)(K)    7.0028
 GAMMAs            1.1464
 SON VEL,M/SEC     1361.4

 MOLE FRACTIONS

 *C              1.2488-9
 *CH             6.154-10
 CH2             1.3286-9
 CH3             2.5515-9
 CH2OH           2.523-10
 CH3O            7.443-11
 CH4             8.099-10
 CH3OH           1.980-11
 CH3OOH          4.203-16
 *CO             2.8632-1
 *CO2            4.8325-2
 COOH            3.1433-6
 *C2             1.905-14
 C2H             6.401-13
 C2H2,acetylene  9.939-12
 C2H2,vinylidene 6.663-14
 CH2CO,ketene    4.217-11
 O(CH)2O         2.104-13
 HO(CO)2OH       8.250-15
 C2H3,vinyl      6.155-15
 CH3CO,acetyl    4.208-14
 C2H4            2.697-15
 CH3CHO,ethanal  1.130-15
 CH3COOH         2.753-16
 C2O             1.889-10
 C3O2            2.717-13
 *H              5.5492-2
 HCO             1.2787-5
 HCCO            2.267-11
 HO2             9.5272-6
 *H2             2.4052-1
 HCHO,formaldehy 4.2740-7
 HCOOH           5.3283-7
 H2O             3.2792-1
 H2O2            1.7429-6
 *O              4.3747-3
 *OH             3.4708-2
 *O2             2.3089-3
 O3              1.2471-9

  * THERMODYNAMIC PROPERTIES FITTED TO 20000.K









         THERMODYNAMIC EQUILIBRIUM COMBUSTION PROPERTIES AT ASSIGNED

                                     VOLUME

 CASE =                

             REACTANT                       MOLES         ENERGY      TEMP
                                                         KJ/KG-MOL      K
 FUEL        CH4                          0.8500000    -77028.260    300.000
 OXIDANT     O2                           2.3000000     -2439.995    300.000
 FUEL        C2H6                         0.1000000    -86248.563    300.000
 FUEL        C3H8                         0.0500000   -107037.874    300.000

 O/F=    2.16935  %FUEL= 31.552247  R,EQ.RATIO= 1.800000  PHI,EQ.RATIO= 1.800000

 THERMODYNAMIC PROPERTIES

 P, BAR            14.923
 T, K             3299.16
 RHO, KG/CU M    9.1700-1
 H, KJ/KG          245.12
 U, KJ/KG        -1382.24
 G, KJ/KG        -48479.6
 S, KJ/(KG)(K)    14.7688

 M, (1/n)          16.856
 (dLV/dLP)t      -1.02172
 (dLV/dLT)p        1.3948
 Cp, KJ/(KG)(K)    6.1945
 GAMMAs            1.1537
 SON VEL,M/SEC     1370.2

 MOLE FRACTIONS

 *C              9.846-10
 *CH             5.698-10
 CH2             1.5506-9
 CH3             3.8362-9
 CH2OH           2.968-10
 CH3O            8.419-11
 CH4             1.5182-9
 CH3OH           2.858-11
 CH3OOH          3.941-16
 *CO             2.9623-1
 *CO2            4.2366-2
 COOH            2.5690-6
 *C2             1.906-14
 C2H             8.337-13
 C2H2,acetylene  1.791-11
 C2H2,vinylidene 1.054-13
 CH2CO,ketene    6.495-11
 O(CH)2O         2.507-13
 HO(CO)2OH       6.850-15
 C2H3,vinyl      1.132-14
 CH3CO,acetyl    6.681-14
 C2H4            6.382-15
 CH3CHO,ethanal  2.172-15
 CH3COOH         4.406-16
 C2O             1.956-10
 C3O2            3.556-13
 *H              4.9373-2
 HCO             1.2571-5
 HCCO            2.748-11
 HO2             4.7553-6
 *H2             2.7296-1
 HCHO,formaldehy 5.0333-7
 HCOOH           5.2342-7
 H2O             3.1077-1
 H2O2            1.0421-6
 *O              2.4560-3
 *OH             2.4728-2
 *O2             1.0865-3
 O3              3.514-10

  * THERMODYNAMIC PROPERTIES FITTED TO 20000.K









         THERMODYNAMIC EQUILIBRIUM COMBUSTION PROPERTIES AT ASSIGNED

                                     VOLUME

 CASE =                

             REACTANT                       MOLES         ENERGY      TEMP
                                                         KJ/KG-MOL      K
 FUEL        CH4                          0.8500000    -77028.260    300.000
 OXIDANT     O2                           2.3000000     -2439.995    300.000
 FUEL        C2H6                         0.1000000    -86248.563    300.000
 FUEL        C3H8                         0.0500000   -107037.874    300.000

 O/F=    2.05517  %FUEL= 32.731400  R,EQ.RATIO= 1.900000  PHI,EQ.RATIO= 1.900000

 THERMODYNAMIC PROPERTIES

 P, BAR            14.953
 T, K             3217.73
 RHO, KG/CU M    9.1700-1
 H, KJ/KG          199.63
 U, KJ/KG        -1431.05
 G, KJ/KG        -47943.4
 S, KJ/(KG)(K)    14.9618

 M, (1/n)          16.407
 (dLV/dLP)t      -1.01638
 (dLV/dLT)p        1.3020
 Cp, KJ/(KG)(K)    5.5111
 GAMMAs            1.1621
 SON VEL,M/SEC     1376.6

 MOLE FRACTIONS

 *C              7.022-10
 *CH             4.821-10
 CH2             1.6940-9
 CH3             5.5585-9
 CH2OH           3.334-10
 CH3O            9.021-11
 CH4             2.8080-9
 CH3OH           4.014-11
 CH3OOH          3.430-16
 *CO             3.0471-1
 *CO2            3.7181-2
 COOH            2.0263-6
 *C2             1.707-14
 C2H             1.003-12
 C2H2,acetylene  3.113-11
 C2H2,vinylidene 1.565-13
 CH2CO,ketene    9.729-11
 O(CH)2O         2.872-13
 HO(CO)2OH       5.508-15
 C2H3,vinyl      1.973-14
 CH3CO,acetyl    1.016-13
 C2H4            1.473-14
 CH3CHO,ethanal  4.062-15
 CH3COOH         6.883-16
 C2O             1.902-10
 C3O2            4.499-13
 *H              4.2201-2
 HCO             1.1893-5
 HCCO            3.156-11
 HO2             2.1976-6
 *H2             3.0566-1
 HCHO,formaldehy 5.7870-7
 HCOOH           5.0377-7
 H2O             2.9163-1
 H2O2            5.8514-7
 *O              1.2844-3
 *OH             1.6837-2
 *O2             4.7833-4
 O3              8.713-11

  * THERMODYNAMIC PROPERTIES FITTED TO 20000.K









         THERMODYNAMIC EQUILIBRIUM COMBUSTION PROPERTIES AT ASSIGNED

                                     VOLUME

 CASE =                

             REACTANT                       MOLES         ENERGY      TEMP
                                                         KJ/KG-MOL      K
 FUEL        CH4                          0.8500000    -77028.260    300.000
 OXIDANT     O2                           2.3000000     -2439.995    300.000
 FUEL        C2H6                         0.1000000    -86248.563    300.000
 FUEL        C3H8                         0.0500000   -107037.874    300.000

 O/F=    1.95241  %FUEL= 33.870614  R,EQ.RATIO= 2.000000  PHI,EQ.RATIO= 2.000000

 THERMODYNAMIC PROPERTIES

 P, BAR            14.921
 T, K             3127.25
 RHO, KG/CU M    9.1700-1
 H, KJ/KG          148.90
 U, KJ/KG        -1478.20
 G, KJ/KG        -47200.8
 S, KJ/(KG)(K)    15.1410

 M, (1/n)          15.980
 (dLV/dLP)t      -1.01215
 (dLV/dLT)p        1.2280
 Cp, KJ/(KG)(K)    4.9452
 GAMMAs            1.1717
 SON VEL,M/SEC     1380.7

 MOLE FRACTIONS

 *C              4.521-10
 *CH             3.723-10
 CH2             1.7322-9
 CH3             7.7705-9
 CH2OH           3.578-10
 CH3O            9.169-11
 CH4             5.1386-9
 CH3OH           5.498-11
 CH3OOH          2.777-16
 *CO             3.1188-1
 *CO2            3.2720-2
 COOH            1.5444-6
 *C2             1.368-14
 C2H             1.115-12
 C2H2,acetylene  5.231-11
 C2H2,vinylidene 2.185-13
 CH2CO,ketene    1.421-10
 O(CH)2O         3.171-13
 HO(CO)2OH       4.308-15
 C2H3,vinyl      3.263-14
 CH3CO,acetyl    1.482-13
 C2H4            3.323-14
 CH3CHO,ethanal  7.420-15
 CH3COOH         1.054-15
 C2O             1.737-10
 C3O2            5.519-13
 *H              3.4626-2
 HCO             1.0834-5
 HCCO            3.439-11
 HO2             9.3964-7
 *H2             3.3779-1
 HCHO,formaldehy 6.5051-7
 HCOOH           4.7604-7
 H2O             2.7120-1
 H2O2            3.0854-7
 *O              6.2474-4
 *OH             1.0951-2
 *O2             1.9681-4
 O3              1.900-11

  * THERMODYNAMIC PROPERTIES FITTED TO 20000.K



