
 *******************************************************************************

         NASA-GLENN CHEMICAL EQUILIBRIUM PROGRAM CEA2, MAY 21, 2004
                   BY  BONNIE MCBRIDE AND SANFORD GORDON
      REFS: NASA RP-1311, PART I, 1994 AND NASA RP-1311, PART II, 1996

 *******************************************************************************



 problem    phi,eq.ratio=0.5,0.6,0.7,0.8,0.9,1,1.1,1.2,1.3,1.4,1.5,1.6,1.7,1.8,1.
 9,2,
       det   t,k=300,  p,bar=1,
 react
   fuel=C2H2,acetylene moles=1 t,k=300
   oxid=O2 moles=2.5 t,k=300
 output  short   trace=1e-16
 end


                     DETONATION PROPERTIES OF AN IDEAL REACTING GAS
 CASE =                

             REACTANT                       MOLES         ENERGY      TEMP
                                                         KJ/KG-MOL      K
 FUEL        C2H2,acetylene               1.0000000    228281.530    300.000
 OXIDANT     O2                           2.5000000        54.358    300.000

 O/F=    6.14480  %FUEL= 13.996184  R,EQ.RATIO= 0.500000  PHI,EQ.RATIO= 0.500000

 UNBURNED GAS

 P1, BAR           1.0000
 T1, K             300.00
 H1, KJ/KG        1228.57
 M1, (1/n)         31.005
 GAMMA1            1.3533
 SON VEL1,M/SEC     330.0

 BURNED GAS

 P, BAR            25.989
 T, K             3789.01
 RHO, KG/CU M    2.2927 0
 H, KJ/KG         2778.74
 U, KJ/KG         1645.18
 G, KJ/KG        -34429.1
 S, KJ/(KG)(K)     9.8199

 M, (1/n)          27.792
 (dLV/dLP)t      -1.06672
 (dLV/dLT)p        2.1039
 Cp, KJ/(KG)(K)    7.0272
 GAMMAs            1.1386
 SON VEL,M/SEC     1136.1

 DETONATION PARAMETERS

 P/P1              25.989
 T/T1              12.630
 M/M1              0.8964
 RHO/RHO1          1.8445
 DET MACH NUMBER   6.3506
 DET VEL,M/SEC     2095.5

 MOLE FRACTIONS

 *C              1.0803-9
 *CH             8.581-11
 CH2             2.067-11
 CH3             3.981-12
 CH2OH           3.420-12
 CH3O            1.246-12
 CH4             1.526-13
 CH3OH           3.482-14
 *CO             1.5075-1
 *CO2            1.4803-1
 COOH            5.0791-6
 *C2             2.232-15
 C2H             7.136-15
 C2H2,acetylene  7.718-15
 C2H2,vinylidene 1.005-16
 CH2CO,ketene    1.807-13
 O(CH)2O         8.348-15
 HO(CO)2OH       1.290-14
 C2O             4.597-11
 C3O2            2.271-14
 *H              2.0578-2
 HCO             3.2241-6
 HCCO            9.029-13
 HO2             4.2158-4
 *H2             9.3745-3
 HCHO,formaldehy 1.5724-8
 HCOOH           1.2339-7
 H2O             7.9793-2
 H2O2            1.1211-5
 *O              1.1620-1
 *OH             9.9420-2
 *O2             3.7540-1
 O3              7.2385-6

  * THERMODYNAMIC PROPERTIES FITTED TO 20000.K


                     DETONATION PROPERTIES OF AN IDEAL REACTING GAS
 CASE =                

             REACTANT                       MOLES         ENERGY      TEMP
                                                         KJ/KG-MOL      K
 FUEL        C2H2,acetylene               1.0000000    228281.530    300.000
 OXIDANT     O2                           2.5000000        54.358    300.000

 O/F=    5.12067  %FUEL= 16.338079  R,EQ.RATIO= 0.600000  PHI,EQ.RATIO= 0.600000

 UNBURNED GAS

 P1, BAR           1.0000
 T1, K             300.00
 H1, KJ/KG        1433.86
 M1, (1/n)         30.845
 GAMMA1            1.3475
 SON VEL1,M/SEC     330.1

 BURNED GAS

 P, BAR            27.745
 T, K             3903.83
 RHO, KG/CU M    2.2814 0
 H, KJ/KG         3101.44
 U, KJ/KG         1885.27
 G, KJ/KG        -36483.2
 S, KJ/(KG)(K)    10.1400

 M, (1/n)          26.689
 (dLV/dLP)t      -1.07701
 (dLV/dLT)p        2.2297
 Cp, KJ/(KG)(K)    7.7236
 GAMMAs            1.1409
 SON VEL,M/SEC     1177.9

 DETONATION PARAMETERS

 P/P1              27.745
 T/T1              13.013
 M/M1              0.8653
 RHO/RHO1          1.8449
 DET MACH NUMBER   6.5834
 DET VEL,M/SEC     2173.2

 MOLE FRACTIONS

 *C              3.3501-9
 *CH             2.945-10
 CH2             7.186-11
 CH3             1.370-11
 CH2OH           9.279-12
 CH3O            3.560-12
 CH4             5.460-13
 CH3OH           9.948-14
 *CO             1.9638-1
 *CO2            1.3855-1
 COOH            6.9619-6
 *C2             1.293-14
 C2H             4.041-14
 C2H2,acetylene  3.970-14
 C2H2,vinylidene 6.038-16
 CH2CO,ketene    6.583-13
 O(CH)2O         2.436-14
 HO(CO)2OH       2.013-14
 CH3CO,acetyl    2.699-16
 C2O             1.499-10
 C3O2            8.165-14
 *H              2.9677-2
 HCO             6.0146-6
 HCCO            3.268-12
 HO2             4.2178-4
 *H2             1.3514-2
 HCHO,formaldehy 3.1730-8
 HCOOH           1.8214-7
 H2O             8.3924-2
 H2O2            1.2110-5
 *O              1.2779-1
 *OH             1.0993-1
 *O2             2.9978-1
 O3              6.4301-6

  * THERMODYNAMIC PROPERTIES FITTED TO 20000.K


                     DETONATION PROPERTIES OF AN IDEAL REACTING GAS
 CASE =                

             REACTANT                       MOLES         ENERGY      TEMP
                                                         KJ/KG-MOL      K
 FUEL        C2H2,acetylene               1.0000000    228281.530    300.000
 OXIDANT     O2                           2.5000000        54.358    300.000

 O/F=    4.38915  %FUEL= 18.555815  R,EQ.RATIO= 0.700000  PHI,EQ.RATIO= 0.700000

 UNBURNED GAS

 P1, BAR           1.0000
 T1, K             300.00
 H1, KJ/KG        1628.26
 M1, (1/n)         30.695
 GAMMA1            1.3422
 SON VEL1,M/SEC     330.3

 BURNED GAS

 P, BAR            29.363
 T, K             3998.46
 RHO, KG/CU M    2.2699 0
 H, KJ/KG         3405.45
 U, KJ/KG         2111.88
 G, KJ/KG        -38306.2
 S, KJ/(KG)(K)    10.4319

 M, (1/n)          25.700
 (dLV/dLP)t      -1.08446
 (dLV/dLT)p        2.3095
 Cp, KJ/(KG)(K)    8.2135
 GAMMAs            1.1437
 SON VEL,M/SEC     1216.3

 DETONATION PARAMETERS

 P/P1              29.363
 T/T1              13.328
 M/M1              0.8373
 RHO/RHO1          1.8446
 DET MACH NUMBER   6.7936
 DET VEL,M/SEC     2243.6

 MOLE FRACTIONS

 *C              8.2242-9
 *CH             7.907-10
 CH2             1.968-10
 CH3             3.761-11
 CH2OH           2.066-11
 CH3O            8.259-12
 CH4             1.564-12
 CH3OH           2.331-13
 CH3OOH          1.080-16
 *CO             2.3903-1
 *CO2            1.2726-1
 COOH            8.7017-6
 *C2             5.277-14
 C2H             1.636-13
 C2H2,acetylene  1.507-13
 C2H2,vinylidene 2.586-15
 CH2CO,ketene    1.863-12
 O(CH)2O         5.661-14
 HO(CO)2OH       2.738-14
 CH3CO,acetyl    9.471-16
 C2O             3.814-10
 C3O2            2.233-13
 *H              3.9687-2
 HCO             9.7915-6
 HCCO            9.108-12
 HO2             4.0428-4
 *H2             1.8250-2
 HCHO,formaldehy 5.5498-8
 HCOOH           2.4373-7
 H2O             8.6519-2
 H2O2            1.2450-5
 *O              1.3367-1
 *OH             1.1664-1
 *O2             2.3850-1
 O3              5.4438-6

  * THERMODYNAMIC PROPERTIES FITTED TO 20000.K


                     DETONATION PROPERTIES OF AN IDEAL REACTING GAS
 CASE =                

             REACTANT                       MOLES         ENERGY      TEMP
                                                         KJ/KG-MOL      K
 FUEL        C2H2,acetylene               1.0000000    228281.530    300.000
 OXIDANT     O2                           2.5000000        54.358    300.000

 O/F=    3.84050  %FUEL= 20.659010  R,EQ.RATIO= 0.800000  PHI,EQ.RATIO= 0.800000

 UNBURNED GAS

 P1, BAR           1.0000
 T1, K             300.00
 H1, KJ/KG        1812.62
 M1, (1/n)         30.554
 GAMMA1            1.3373
 SON VEL1,M/SEC     330.4

 BURNED GAS

 P, BAR            30.872
 T, K             4079.01
 RHO, KG/CU M    2.2586 0
 H, KJ/KG         3693.28
 U, KJ/KG         2326.41
 G, KJ/KG        -39951.6
 S, KJ/(KG)(K)    10.6999

 M, (1/n)          24.812
 (dLV/dLP)t      -1.08968
 (dLV/dLT)p        2.3554
 Cp, KJ/(KG)(K)    8.5455
 GAMMAs            1.1466
 SON VEL,M/SEC     1251.9

 DETONATION PARAMETERS

 P/P1              30.872
 T/T1              13.597
 M/M1              0.8121
 RHO/RHO1          1.8439
 DET MACH NUMBER   6.9862
 DET VEL,M/SEC     2308.4

 MOLE FRACTIONS

 *C              1.7342-8
 *CH             1.8072-9
 CH2             4.606-10
 CH3             8.887-11
 CH2OH           4.025-11
 CH3O            1.665-11
 CH4             3.858-12
 CH3OH           4.773-13
 CH3OOH          2.111-16
 *CO             2.7839-1
 *CO2            1.1532-1
 COOH            1.0211-5
 *C2             1.714-13
 C2H             5.321-13
 C2H2,acetylene  4.689-13
 C2H2,vinylidene 8.870-15
 CH2CO,ketene    4.463-12
 O(CH)2O         1.130-13
 HO(CO)2OH       3.383-14
 C2H3,vinyl      1.883-16
 CH3CO,acetyl    2.724-15
 C2O             8.250-10
 C3O2            5.107-13
 *H              5.0475-2
 HCO             1.4562-5
 HCCO            2.138-11
 HO2             3.7524-4
 *H2             2.3573-2
 HCHO,formaldehy 8.8189-8
 HCOOH           3.0470-7
 H2O             8.7751-2
 H2O2            1.2328-5
 *O              1.3512-1
 *OH             1.2019-1
 *O2             1.8876-1
 O3              4.4420-6

  * THERMODYNAMIC PROPERTIES FITTED TO 20000.K


                     DETONATION PROPERTIES OF AN IDEAL REACTING GAS
 CASE =                

             REACTANT                       MOLES         ENERGY      TEMP
                                                         KJ/KG-MOL      K
 FUEL        C2H2,acetylene               1.0000000    228281.530    300.000
 OXIDANT     O2                           2.5000000        54.358    300.000

 O/F=    3.41378  %FUEL= 22.656315  R,EQ.RATIO= 0.900000  PHI,EQ.RATIO= 0.900000

 UNBURNED GAS

 P1, BAR           1.0000
 T1, K             300.00
 H1, KJ/KG        1987.70
 M1, (1/n)         30.421
 GAMMA1            1.3329
 SON VEL1,M/SEC     330.6

 BURNED GAS

 P, BAR            32.290
 T, K             4149.00
 RHO, KG/CU M    2.2476 0
 H, KJ/KG         3966.62
 U, KJ/KG         2529.94
 G, KJ/KG        -41451.7
 S, KJ/(KG)(K)    10.9468

 M, (1/n)          24.012
 (dLV/dLP)t      -1.09312
 (dLV/dLT)p        2.3761
 Cp, KJ/(KG)(K)    8.7550
 GAMMAs            1.1497
 SON VEL,M/SEC     1285.2

 DETONATION PARAMETERS

 P/P1              32.290
 T/T1              13.830
 M/M1              0.7893
 RHO/RHO1          1.8429
 DET MACH NUMBER   7.1643
 DET VEL,M/SEC     2368.4

 MOLE FRACTIONS

 *C              3.2884-8
 *CH             3.6885-9
 CH2             9.645-10
 CH3             1.888-10
 CH2OH           7.124-11
 CH3O            3.033-11
 CH4             8.559-12
 CH3OH           8.861-13
 CH3OOH          3.691-16
 *CO             3.1444-1
 *CO2            1.0340-1
 COOH            1.1437-5
 *C2             4.753-13
 C2H             1.486-12
 C2H2,acetylene  1.269-12
 C2H2,vinylidene 2.605-14
 CH2CO,ketene    9.507-12
 O(CH)2O         2.024-13
 HO(CO)2OH       3.890-14
 C2H3,vinyl      5.998-16
 CH3CO,acetyl    6.807-15
 C2O             1.5939-9
 C3O2            1.031-12
 *H              6.1929-2
 HCO             2.0308-5
 HCCO            4.451-11
 HO2             3.3917-4
 *H2             2.9477-2
 HCHO,formaldehy 1.3081-7
 HCOOH           3.6207-7
 H2O             8.7764-2
 H2O2            1.1835-5
 *O              1.3315-1
 *OH             1.2107-1
 *O2             1.4839-1
 O3              3.5129-6

  * THERMODYNAMIC PROPERTIES FITTED TO 20000.K


                     DETONATION PROPERTIES OF AN IDEAL REACTING GAS
 CASE =                

             REACTANT                       MOLES         ENERGY      TEMP
                                                         KJ/KG-MOL      K
 FUEL        C2H2,acetylene               1.0000000    228281.530    300.000
 OXIDANT     O2                           2.5000000        54.358    300.000

 O/F=    3.07240  %FUEL= 24.555531  R,EQ.RATIO= 1.000000  PHI,EQ.RATIO= 1.000000

 UNBURNED GAS

 P1, BAR           1.0000
 T1, K             300.00
 H1, KJ/KG        2154.18
 M1, (1/n)         30.296
 GAMMA1            1.3288
 SON VEL1,M/SEC     330.8

 BURNED GAS

 P, BAR            33.629
 T, K             4210.56
 RHO, KG/CU M    2.2369 0
 H, KJ/KG         4226.75
 U, KJ/KG         2723.36
 G, KJ/KG        -42826.8
 S, KJ/(KG)(K)    11.1751

 M, (1/n)          23.287
 (dLV/dLP)t      -1.09513
 (dLV/dLT)p        2.3777
 Cp, KJ/(KG)(K)    8.8675
 GAMMAs            1.1528
 SON VEL,M/SEC     1316.4

 DETONATION PARAMETERS

 P/P1              33.629
 T/T1              14.035
 M/M1              0.7686
 RHO/RHO1          1.8417
 DET MACH NUMBER   7.3300
 DET VEL,M/SEC     2424.5

 MOLE FRACTIONS

 *C              5.7668-8
 *CH             6.9229-9
 CH2             1.8598-9
 CH3             3.705-10
 CH2OH           1.172-10
 CH3O            5.114-11
 CH4             1.753-11
 CH3OH           1.527-12
 CH3OOH          5.919-16
 *CO             3.4729-1
 *CO2            9.1901-2
 COOH            1.2351-5
 *C2             1.174-12
 C2H             3.712-12
 C2H2,acetylene  3.105-12
 C2H2,vinylidene 6.830-14
 CH2CO,ketene    1.857-11
 O(CH)2O         3.341-13
 HO(CO)2OH       4.223-14
 C2H3,vinyl      1.694-15
 CH3CO,acetyl    1.531-14
 C2O             2.8347-9
 *C3             1.008-16
 C3O2            1.900-12
 *H              7.3936-2
 HCO             2.6986-5
 HCCO            8.479-11
 HO2             2.9947-4
 *H2             3.5952-2
 HCHO,formaldehy 1.8416-7
 HCOOH           4.1340-7
 H2O             8.6679-2
 H2O2            1.1058-5
 *O              1.2850-1
 *OH             1.1967-1
 *O2             1.1573-1
 O3              2.6997-6

  * THERMODYNAMIC PROPERTIES FITTED TO 20000.K


                     DETONATION PROPERTIES OF AN IDEAL REACTING GAS
 CASE =                

             REACTANT                       MOLES         ENERGY      TEMP
                                                         KJ/KG-MOL      K
 FUEL        C2H2,acetylene               1.0000000    228281.530    300.000
 OXIDANT     O2                           2.5000000        54.358    300.000

 O/F=    2.79309  %FUEL= 26.363709  R,EQ.RATIO= 1.100000  PHI,EQ.RATIO= 1.100000

 UNBURNED GAS

 P1, BAR           1.0000
 T1, K             300.00
 H1, KJ/KG        2312.69
 M1, (1/n)         30.177
 GAMMA1            1.3250
 SON VEL1,M/SEC     330.9

 BURNED GAS

 P, BAR            34.895
 T, K             4265.09
 RHO, KG/CU M    2.2265 0
 H, KJ/KG         4474.67
 U, KJ/KG         2907.42
 G, KJ/KG        -44090.7
 S, KJ/(KG)(K)    11.3867

 M, (1/n)          22.627
 (dLV/dLP)t      -1.09594
 (dLV/dLT)p        2.3644
 Cp, KJ/(KG)(K)    8.9012
 GAMMAs            1.1559
 SON VEL,M/SEC     1345.9

 DETONATION PARAMETERS

 P/P1              34.895
 T/T1              14.217
 M/M1              0.7498
 RHO/RHO1          1.8404
 DET MACH NUMBER   7.4847
 DET VEL,M/SEC     2477.0

 MOLE FRACTIONS

 *C              9.5246-8
 *CH             1.2180-8
 CH2             3.3648-9
 CH3             6.837-10
 CH2OH           1.820-10
 CH3O            8.112-11
 CH4             3.374-11
 CH3OH           2.479-12
 CH3OOH          8.845-16
 *CO             3.7711-1
 *CO2            8.1055-2
 COOH            1.2944-5
 *C2             2.656-12
 C2H             8.523-12
 C2H2,acetylene  7.036-12
 C2H2,vinylidene 1.642-13
 CH2CO,ketene    3.393-11
 O(CH)2O         5.171-13
 HO(CO)2OH       4.370-14
 C2H3,vinyl      4.362-15
 CH3CO,acetyl    3.175-14
 C2H4            2.065-16
 CH3CHO,ethanal  1.640-16
 C2O             4.7335-9
 *C3             2.995-16
 C3O2            3.267-12
 *H              8.6370-2
 HCO             3.4527-5
 HCCO            1.509-10
 HO2             2.5871-4
 *H2             4.2980-2
 HCHO,formaldehy 2.4886-7
 HCOOH           4.5672-7
 H2O             8.4610-2
 H2O2            1.0077-5
 *O              1.2181-1
 *OH             1.1634-1
 *O2             8.9407-2
 O3              2.0182-6

  * THERMODYNAMIC PROPERTIES FITTED TO 20000.K


                     DETONATION PROPERTIES OF AN IDEAL REACTING GAS
 CASE =                

             REACTANT                       MOLES         ENERGY      TEMP
                                                         KJ/KG-MOL      K
 FUEL        C2H2,acetylene               1.0000000    228281.530    300.000
 OXIDANT     O2                           2.5000000        54.358    300.000

 O/F=    2.56034  %FUEL= 28.087242  R,EQ.RATIO= 1.200000  PHI,EQ.RATIO= 1.200000

 UNBURNED GAS

 P1, BAR           1.0000
 T1, K             300.00
 H1, KJ/KG        2463.77
 M1, (1/n)         30.065
 GAMMA1            1.3216
 SON VEL1,M/SEC     331.1

 BURNED GAS

 P, BAR            36.093
 T, K             4313.47
 RHO, KG/CU M    2.2165 0
 H, KJ/KG         4711.15
 U, KJ/KG         3082.76
 G, KJ/KG        -45252.6
 S, KJ/(KG)(K)    11.5832

 M, (1/n)          22.024
 (dLV/dLP)t      -1.09571
 (dLV/dLT)p        2.3390
 Cp, KJ/(KG)(K)    8.8684
 GAMMAs            1.1590
 SON VEL,M/SEC     1373.8

 DETONATION PARAMETERS

 P/P1              36.093
 T/T1              14.378
 M/M1              0.7326
 RHO/RHO1          1.8389
 DET MACH NUMBER   7.6295
 DET VEL,M/SEC     2526.3

 MOLE FRACTIONS

 *C              1.5002-7
 *CH             2.0357-8
 CH2             5.7866-9
 CH3             1.2016-9
 CH2OH           2.694-10
 CH3O            1.224-10
 CH4             6.182-11
 CH3OH           3.833-12
 CH3OOH          1.246-15
 *CO             4.0413-1
 *CO2            7.0985-2
 COOH            1.3222-5
 *C2             5.613-12
 C2H             1.833-11
 C2H2,acetylene  1.502-11
 C2H2,vinylidene 3.692-13
 CH2CO,ketene    5.883-11
 O(CH)2O         7.599-13
 HO(CO)2OH       4.339-14
 C2H3,vinyl      1.046-14
 CH3CO,acetyl    6.172-14
 C2H4            5.065-16
 CH3CHO,ethanal  3.340-16
 CH3COOH         1.004-16
 C2O             7.5245-9
 *C3             8.186-16
 C3O2            5.327-12
 *H              9.9093-2
 HCO             4.2844-5
 HCCO            2.547-10
 HO2             2.1880-4
 *H2             5.0536-2
 HCHO,formaldehy 3.2525-7
 HCOOH           4.9056-7
 H2O             8.1663-2
 H2O2            8.9667-6
 *O              1.1359-1
 *OH             1.1139-1
 *O2             6.8334-2
 O3              1.4676-6

  * THERMODYNAMIC PROPERTIES FITTED TO 20000.K


                     DETONATION PROPERTIES OF AN IDEAL REACTING GAS
 CASE =                

             REACTANT                       MOLES         ENERGY      TEMP
                                                         KJ/KG-MOL      K
 FUEL        C2H2,acetylene               1.0000000    228281.530    300.000
 OXIDANT     O2                           2.5000000        54.358    300.000

 O/F=    2.36339  %FUEL= 29.731939  R,EQ.RATIO= 1.300000  PHI,EQ.RATIO= 1.300000

 UNBURNED GAS

 P1, BAR           1.0000
 T1, K             300.00
 H1, KJ/KG        2607.94
 M1, (1/n)         29.959
 GAMMA1            1.3183
 SON VEL1,M/SEC     331.3

 BURNED GAS

 P, BAR            37.228
 T, K             4356.31
 RHO, KG/CU M    2.2068 0
 H, KJ/KG         4936.86
 U, KJ/KG         3249.94
 G, KJ/KG        -46319.1
 S, KJ/(KG)(K)    11.7659

 M, (1/n)          21.471
 (dLV/dLP)t      -1.09455
 (dLV/dLT)p        2.3035
 Cp, KJ/(KG)(K)    8.7779
 GAMMAs            1.1622
 SON VEL,M/SEC     1400.2

 DETONATION PARAMETERS

 P/P1              37.228
 T/T1              14.521
 M/M1              0.7167
 RHO/RHO1          1.8374
 DET MACH NUMBER   7.7652
 DET VEL,M/SEC     2572.6

 MOLE FRACTIONS

 *C              2.2737-7
 *CH             3.2628-8
 CH2             9.5502-9
 CH3             2.0302-9
 CH2OH           3.832-10
 CH3O            1.769-10
 CH4             1.088-10
 CH3OH           5.687-12
 CH3OOH          1.665-15
 *CO             4.2855-1
 *CO2            6.1745-2
 COOH            1.3202-5
 *C2             1.124-11
 C2H             3.742-11
 C2H2,acetylene  3.063-11
 C2H2,vinylidene 7.870-13
 CH2CO,ketene    9.786-11
 O(CH)2O         1.070-12
 HO(CO)2OH       4.151-14
 C2H3,vinyl      2.367-14
 CH3CO,acetyl    1.139-13
 C2H4            1.175-15
 CH3CHO,ethanal  6.444-16
 CH3COOH         1.597-16
 C2O             1.1501-8
 *C3             2.098-15
 C3O2            8.326-12
 *H              1.1195-1
 HCO             5.1826-5
 HCCO            4.118-10
 HO2             1.8115-4
 *H2             5.8582-2
 HCHO,formaldehy 4.1341-7
 HCOOH           5.1393-7
 H2O             7.7944-2
 H2O2            7.7931-6
 *O              1.0429-1
 *OH             1.0510-1
 *O2             5.1586-2
 O3              1.0372-6

  * THERMODYNAMIC PROPERTIES FITTED TO 20000.K


                     DETONATION PROPERTIES OF AN IDEAL REACTING GAS
 CASE =                

             REACTANT                       MOLES         ENERGY      TEMP
                                                         KJ/KG-MOL      K
 FUEL        C2H2,acetylene               1.0000000    228281.530    300.000
 OXIDANT     O2                           2.5000000        54.358    300.000

 O/F=    2.19457  %FUEL= 31.303087  R,EQ.RATIO= 1.400000  PHI,EQ.RATIO= 1.400000

 UNBURNED GAS

 P1, BAR           1.0000
 T1, K             300.00
 H1, KJ/KG        2745.66
 M1, (1/n)         29.859
 GAMMA1            1.3153
 SON VEL1,M/SEC     331.5

 BURNED GAS

 P, BAR            38.299
 T, K             4394.01
 RHO, KG/CU M    2.1975 0
 H, KJ/KG         5152.32
 U, KJ/KG         3409.43
 G, KJ/KG        -47294.6
 S, KJ/(KG)(K)    11.9360

 M, (1/n)          20.962
 (dLV/dLP)t      -1.09256
 (dLV/dLT)p        2.2592
 Cp, KJ/(KG)(K)    8.6360
 GAMMAs            1.1653
 SON VEL,M/SEC     1425.1

 DETONATION PARAMETERS

 P/P1              38.299
 T/T1              14.647
 M/M1              0.7020
 RHO/RHO1          1.8357
 DET MACH NUMBER   7.8924
 DET VEL,M/SEC     2616.2

 MOLE FRACTIONS

 *C              3.3391-7
 *CH             5.0527-8
 CH2             1.5238-8
 CH3             3.3212-9
 CH2OH           5.267-10
 CH3O            2.467-10
 CH4             1.853-10
 CH3OH           8.146-12
 CH3OOH          2.125-15
 *CO             4.5061-1
 *CO2            5.3336-2
 COOH            1.2908-5
 *C2             2.157-11
 C2H             7.334-11
 C2H2,acetylene  6.027-11
 C2H2,vinylidene 1.609-12
 CH2CO,ketene    1.574-10
 O(CH)2O         1.452-12
 HO(CO)2OH       3.837-14
 C2H3,vinyl      5.122-14
 CH3CO,acetyl    2.012-13
 C2H4            2.609-15
 CH3CHO,ethanal  1.189-15
 CH3COOH         2.433-16
 C2O             1.7033-8
 *C3             5.115-15
 C3O2            1.259-11
 *H              1.2478-1
 HCO             6.1348-5
 HCCO            6.434-10
 HO2             1.4670-4
 *H2             6.7079-2
 HCHO,formaldehy 5.1318-7
 HCOOH           5.2628-7
 H2O             7.3557-2
 H2O2            6.6124-6
 *O              9.4281-2
 *OH             9.7739-2
 *O2             3.8392-2
 O3              7.1099-7

  * THERMODYNAMIC PROPERTIES FITTED TO 20000.K


                     DETONATION PROPERTIES OF AN IDEAL REACTING GAS
 CASE =                

             REACTANT                       MOLES         ENERGY      TEMP
                                                         KJ/KG-MOL      K
 FUEL        C2H2,acetylene               1.0000000    228281.530    300.000
 OXIDANT     O2                           2.5000000        54.358    300.000

 O/F=    2.04827  %FUEL= 32.805512  R,EQ.RATIO= 1.500000  PHI,EQ.RATIO= 1.500000

 UNBURNED GAS

 P1, BAR           1.0000
 T1, K             300.00
 H1, KJ/KG        2877.36
 M1, (1/n)         29.763
 GAMMA1            1.3125
 SON VEL1,M/SEC     331.7

 BURNED GAS

 P, BAR            39.310
 T, K             4426.89
 RHO, KG/CU M    2.1884 0
 H, KJ/KG         5357.97
 U, KJ/KG         3561.67
 G, KJ/KG        -48182.7
 S, KJ/(KG)(K)    12.0944

 M, (1/n)          20.491
 (dLV/dLP)t      -1.08983
 (dLV/dLT)p        2.2075
 Cp, KJ/(KG)(K)    8.4479
 GAMMAs            1.1685
 SON VEL,M/SEC     1448.8

 DETONATION PARAMETERS

 P/P1              39.310
 T/T1              14.756
 M/M1              0.6885
 RHO/RHO1          1.8340
 DET MACH NUMBER   8.0116
 DET VEL,M/SEC     2657.1

 MOLE FRACTIONS

 *C              4.7786-7
 *CH             7.6059-8
 CH2             2.3654-8
 CH3             5.2939-9
 CH2OH           7.027-10
 CH3O            3.332-10
 CH4             3.074-10
 CH3OH           1.132-11
 CH3OOH          2.599-15
 *CO             4.7053-1
 *CO2            4.5728-2
 COOH            1.2370-5
 *C2             4.002-11
 C2H             1.393-10
 C2H2,acetylene  1.154-10
 C2H2,vinylidene 3.184-12
 CH2CO,ketene    2.464-10
 O(CH)2O         1.911-12
 HO(CO)2OH       3.429-14
 C2H3,vinyl      1.070-13
 CH3CO,acetyl    3.434-13
 C2H4            5.600-15
 CH3CHO,ethanal  2.117-15
 CH3COOH         3.571-16
 C2O             2.4601-8
 *C3             1.202-14
 C3O2            1.854-11
 *H              1.3741-1
 HCO             7.1273-5
 HCCO            9.777-10
 HO2             1.1602-4
 *H2             7.5982-2
 HCHO,formaldehy 6.2418-7
 HCOOH           5.2744-7
 H2O             6.8599-2
 H2O2            5.4708-6
 *O              8.3892-2
 *OH             8.9557-2
 *O2             2.8097-2
 O3              4.7140-7

  * THERMODYNAMIC PROPERTIES FITTED TO 20000.K


                     DETONATION PROPERTIES OF AN IDEAL REACTING GAS
 CASE =                

             REACTANT                       MOLES         ENERGY      TEMP
                                                         KJ/KG-MOL      K
 FUEL        C2H2,acetylene               1.0000000    228281.530    300.000
 OXIDANT     O2                           2.5000000        54.358    300.000

 O/F=    1.92025  %FUEL= 34.243626  R,EQ.RATIO= 1.600000  PHI,EQ.RATIO= 1.600000

 UNBURNED GAS

 P1, BAR           1.0000
 T1, K             300.00
 H1, KJ/KG        3003.42
 M1, (1/n)         29.672
 GAMMA1            1.3099
 SON VEL1,M/SEC     331.8

 BURNED GAS

 P, BAR            40.259
 T, K             4455.15
 RHO, KG/CU M    2.1795 0
 H, KJ/KG         5554.19
 U, KJ/KG         3707.02
 G, KJ/KG        -48985.9
 S, KJ/(KG)(K)    12.2420

 M, (1/n)          20.054
 (dLV/dLP)t      -1.08644
 (dLV/dLT)p        2.1495
 Cp, KJ/(KG)(K)    8.2187
 GAMMAs            1.1718
 SON VEL,M/SEC     1471.3

 DETONATION PARAMETERS

 P/P1              40.259
 T/T1              14.850
 M/M1              0.6758
 RHO/RHO1          1.8322
 DET MACH NUMBER   8.1233
 DET VEL,M/SEC     2695.6

 MOLE FRACTIONS

 *C              6.6979-7
 *CH             1.1191-7
 CH2             3.5920-8
 CH3             8.2683-9
 CH2OH           9.133-10
 CH3O            4.375-10
 CH4             4.994-10
 CH3OH           1.531-11
 CH3OOH          3.053-15
 *CO             4.8852-1
 *CO2            3.8870-2
 COOH            1.1620-5
 *C2             7.245-11
 C2H             2.587-10
 C2H2,acetylene  2.171-10
 C2H2,vinylidene 6.155-12
 CH2CO,ketene    3.780-10
 O(CH)2O         2.448-12
 HO(CO)2OH       2.962-14
 C2H3,vinyl      2.177-13
 CH3CO,acetyl    5.697-13
 C2H4            1.173-14
 CH3CHO,ethanal  3.662-15
 CH3COOH         5.074-16
 C2O             3.4844-8
 *C3             2.753-14
 C3O2            2.676-11
 *H              1.4969-1
 HCO             8.1460-5
 HCCO            1.4538-9
 HO2             8.9375-5
 *H2             8.5252-2
 HCHO,formaldehy 7.4588-7
 HCOOH           5.1755-7
 H2O             6.3160-2
 H2O2            4.4035-6
 *O              7.3394-2
 *OH             8.0775-2
 *O2             2.0155-2
 O3              3.0095-7

  * THERMODYNAMIC PROPERTIES FITTED TO 20000.K


                     DETONATION PROPERTIES OF AN IDEAL REACTING GAS
 CASE =                

             REACTANT                       MOLES         ENERGY      TEMP
                                                         KJ/KG-MOL      K
 FUEL        C2H2,acetylene               1.0000000    228281.530    300.000
 OXIDANT     O2                           2.5000000        54.358    300.000

 O/F=    1.80730  %FUEL= 35.621473  R,EQ.RATIO= 1.700000  PHI,EQ.RATIO= 1.700000

 UNBURNED GAS

 P1, BAR           1.0000
 T1, K             300.00
 H1, KJ/KG        3124.20
 M1, (1/n)         29.586
 GAMMA1            1.3074
 SON VEL1,M/SEC     332.0

 BURNED GAS

 P, BAR            41.147
 T, K             4478.95
 RHO, KG/CU M    2.1708 0
 H, KJ/KG         5741.30
 U, KJ/KG         3845.83
 G, KJ/KG        -49706.0
 S, KJ/(KG)(K)    12.3795

 M, (1/n)          19.647
 (dLV/dLP)t      -1.08250
 (dLV/dLT)p        2.0864
 Cp, KJ/(KG)(K)    7.9539
 GAMMAs            1.1752
 SON VEL,M/SEC     1492.5

 DETONATION PARAMETERS

 P/P1              41.147
 T/T1              14.930
 M/M1              0.6641
 RHO/RHO1          1.8302
 DET MACH NUMBER   8.2276
 DET VEL,M/SEC     2731.6

 MOLE FRACTIONS

 *C              9.2408-7
 *CH             1.6179-7
 CH2             5.3661-8
 CH3             1.2726-8
 CH2OH           1.1599-9
 CH3O            5.606-10
 CH4             7.996-10
 CH3OH           2.023-11
 CH3OOH          3.449-15
 *CO             5.0478-1
 *CO2            3.2696-2
 COOH            1.0691-5
 *C2             1.291-10
 C2H             4.739-10
 C2H2,acetylene  4.044-10
 C2H2,vinylidene 1.173-11
 CH2CO,ketene    5.715-10
 O(CH)2O         3.062-12
 HO(CO)2OH       2.469-14
 C2H3,vinyl      4.359-13
 CH3CO,acetyl    9.255-13
 C2H4            2.421-14
 CH3CHO,ethanal  6.198-15
 CH3COOH         7.010-16
 C2O             4.8664-8
 *C3             6.229-14
 C3H3,2-propynl  1.953-16
 C3O2            3.812-11
 *H              1.6147-1
 HCO             9.1770-5
 HCCO            2.1280-9
 HO2             6.6798-5
 *H2             9.4855-2
 HCHO,formaldehy 8.7765-7
 HCOOH           4.9697-7
 H2O             5.7316-2
 H2O2            3.4355-6
 *O              6.3015-2
 *OH             7.1593-2
 *O2             1.4104-2
 O3              1.8379-7

  * THERMODYNAMIC PROPERTIES FITTED TO 20000.K


                     DETONATION PROPERTIES OF AN IDEAL REACTING GAS
 CASE =                

             REACTANT                       MOLES         ENERGY      TEMP
                                                         KJ/KG-MOL      K
 FUEL        C2H2,acetylene               1.0000000    228281.530    300.000
 OXIDANT     O2                           2.5000000        54.358    300.000

 O/F=    1.70689  %FUEL= 36.942762  R,EQ.RATIO= 1.800000  PHI,EQ.RATIO= 1.800000

 UNBURNED GAS

 P1, BAR           1.0000
 T1, K             300.00
 H1, KJ/KG        3240.02
 M1, (1/n)         29.503
 GAMMA1            1.3051
 SON VEL1,M/SEC     332.2

 BURNED GAS

 P, BAR            41.974
 T, K             4498.40
 RHO, KG/CU M    2.1623 0
 H, KJ/KG         5919.56
 U, KJ/KG         3978.39
 G, KJ/KG        -50344.4
 S, KJ/(KG)(K)    12.5075

 M, (1/n)          19.268
 (dLV/dLP)t      -1.07812
 (dLV/dLT)p        2.0196
 Cp, KJ/(KG)(K)    7.6594
 GAMMAs            1.1788
 SON VEL,M/SEC     1512.7

 DETONATION PARAMETERS

 P/P1              41.974
 T/T1              14.995
 M/M1              0.6531
 RHO/RHO1          1.8281
 DET MACH NUMBER   8.3250
 DET VEL,M/SEC     2765.4

 MOLE FRACTIONS

 *C              1.2617-6
 *CH             2.3119-7
 CH2             7.9338-8
 CH3             1.9424-8
 CH2OH           1.4434-9
 CH3O            7.025-10
 CH4             1.2697-9
 CH3OH           2.620-11
 CH3OOH          3.748-15
 *CO             5.1951-1
 *CO2            2.7137-2
 COOH            9.6144-6
 *C2             2.286-10
 C2H             8.648-10
 C2H2,acetylene  7.539-10
 C2H2,vinylidene 2.229-11
 CH2CO,ketene    8.571-10
 O(CH)2O         3.752-12
 HO(CO)2OH       1.976-14
 C2H3,vinyl      8.682-13
 CH3CO,acetyl    1.482-12
 C2H4            4.979-14
 CH3CHO,ethanal  1.034-14
 CH3COOH         9.452-16
 C2H5            1.105-16
 C2O             6.7405-8
 *C3             1.412-13
 C3H3,2-propynl  5.010-16
 C3O2            5.388-11
 *H              1.7261-1
 HCO             1.0207-4
 HCCO            3.0852-9
 HO2             4.8142-5
 *H2             1.0477-1
 HCHO,formaldehy 1.0188-6
 HCOOH           4.6618-7
 H2O             5.1130-2
 H2O2            2.5832-6
 *O              5.2939-2
 *OH             6.2184-2
 *O2             9.5641-3
 O3              1.0634-7

  * THERMODYNAMIC PROPERTIES FITTED TO 20000.K


                     DETONATION PROPERTIES OF AN IDEAL REACTING GAS
 CASE =                

             REACTANT                       MOLES         ENERGY      TEMP
                                                         KJ/KG-MOL      K
 FUEL        C2H2,acetylene               1.0000000    228281.530    300.000
 OXIDANT     O2                           2.5000000        54.358    300.000

 O/F=    1.61705  %FUEL= 38.210906  R,EQ.RATIO= 1.900000  PHI,EQ.RATIO= 1.900000

 UNBURNED GAS

 P1, BAR           1.0000
 T1, K             300.00
 H1, KJ/KG        3351.19
 M1, (1/n)         29.425
 GAMMA1            1.3030
 SON VEL1,M/SEC     332.3

 BURNED GAS

 P, BAR            42.738
 T, K             4513.60
 RHO, KG/CU M    2.1539 0
 H, KJ/KG         6089.21
 U, KJ/KG         4104.95
 G, KJ/KG        -50901.8
 S, KJ/(KG)(K)    12.6265

 M, (1/n)          18.913
 (dLV/dLP)t      -1.07343
 (dLV/dLT)p        1.9504
 Cp, KJ/(KG)(K)    7.3419
 GAMMAs            1.1825
 SON VEL,M/SEC     1531.8

 DETONATION PARAMETERS

 P/P1              42.738
 T/T1              15.045
 M/M1              0.6428
 RHO/RHO1          1.8259
 DET MACH NUMBER   8.4155
 DET VEL,M/SEC     2796.9

 MOLE FRACTIONS

 *C              1.7160-6
 *CH             3.2877-7
 CH2             1.1693-7
 CH3             2.9616-8
 CH2OH           1.7638-9
 CH3O            8.632-10
 CH4             2.0150-9
 CH3OH           3.333-11
 CH3OOH          3.907-15
 *CO             5.3287-1
 *CO2            2.2121-2
 COOH            8.4179-6
 *C2             4.074-10
 C2H             1.5923-9
 C2H2,acetylene  1.4245-9
 C2H2,vinylidene 4.273-11
 CH2CO,ketene    1.2845-9
 O(CH)2O         4.515-12
 HO(CO)2OH       1.506-14
 C2H3,vinyl      1.743-12
 CH3CO,acetyl    2.359-12
 C2H4            1.034-13
 CH3CHO,ethanal  1.715-14
 CH3COOH         1.248-15
 C2H5            2.441-16
 C2O             9.3235-8
 *C3             3.262-13
 C3H3,2-propynl  1.311-15
 C3O2            7.614-11
 *H              1.8298-1
 HCO             1.1222-4
 HCCO            4.4624-9
 HO2             3.3146-5
 *H2             1.1499-1
 HCHO,formaldehy 1.1689-6
 HCOOH           4.2568-7
 H2O             4.4649-2
 H2O2            1.8551-6
 *O              4.3311-2
 *OH             5.2696-2
 *O2             6.2230-3
 O3              5.7448-8

  * THERMODYNAMIC PROPERTIES FITTED TO 20000.K


                     DETONATION PROPERTIES OF AN IDEAL REACTING GAS
 CASE =                

             REACTANT                       MOLES         ENERGY      TEMP
                                                         KJ/KG-MOL      K
 FUEL        C2H2,acetylene               1.0000000    228281.530    300.000
 OXIDANT     O2                           2.5000000        54.358    300.000

 O/F=    1.53620  %FUEL= 39.429049  R,EQ.RATIO= 2.000000  PHI,EQ.RATIO= 2.000000

 UNBURNED GAS

 P1, BAR           1.0000
 T1, K             300.00
 H1, KJ/KG        3457.97
 M1, (1/n)         29.349
 GAMMA1            1.3009
 SON VEL1,M/SEC     332.5

 BURNED GAS

 P, BAR            43.439
 T, K             4524.57
 RHO, KG/CU M    2.1455 0
 H, KJ/KG         6250.43
 U, KJ/KG         4225.74
 G, KJ/KG        -51377.9
 S, KJ/(KG)(K)    12.7368

 M, (1/n)          18.580
 (dLV/dLP)t      -1.06854
 (dLV/dLT)p        1.8802
 Cp, KJ/(KG)(K)    7.0079
 GAMMAs            1.1865
 SON VEL,M/SEC     1549.9

 DETONATION PARAMETERS

 P/P1              43.439
 T/T1              15.082
 M/M1              0.6331
 RHO/RHO1          1.8234
 DET MACH NUMBER   8.4995
 DET VEL,M/SEC     2826.2

 MOLE FRACTIONS

 *C              2.3454-6
 *CH             4.6958-7
 CH2             1.7343-7
 CH3             4.5557-8
 CH2OH           2.1210-9
 CH3O            1.0421-9
 CH4             3.2288-9
 CH3OH           4.176-11
 CH3OOH          3.888-15
 *CO             5.4502-1
 *CO2            1.7580-2
 COOH            7.1277-6
 *C2             7.434-10
 C2H             3.0106-9
 C2H2,acetylene  2.7771-9
 C2H2,vinylidene 8.416-11
 CH2CO,ketene    1.9430-9
 O(CH)2O         5.346-12
 HO(CO)2OH       1.079-14
 C2H3,vinyl      3.591-12
 CH3CO,acetyl    3.772-12
 C2H4            2.211-13
 C2H4O,ethylen-o 1.217-16
 CH3CHO,ethanal  2.858-14
 CH3COOH         1.618-15
 C2H5            5.520-16
 C2O             1.2997-7
 *C3             7.889-13
 C3H3,2-propynl  3.594-15
 C3O2            1.086-10
 *H              1.9249-1
 HCO             1.2211-4
 HCCO            6.5013-9
 HO2             2.1478-5
 *H2             1.2552-1
 HCHO,formaldehy 1.3272-6
 HCOOH           3.7599-7
 H2O             3.7901-2
 H2O2            1.2541-6
 *O              3.4249-2
 *OH             4.3253-2
 *O2             3.8256-3
 O3              2.8318-8

  * THERMODYNAMIC PROPERTIES FITTED TO 20000.K



