
 *******************************************************************************

         NASA-GLENN CHEMICAL EQUILIBRIUM PROGRAM CEA2, MAY 21, 2004
                   BY  BONNIE MCBRIDE AND SANFORD GORDON
      REFS: NASA RP-1311, PART I, 1994 AND NASA RP-1311, PART II, 1996

 *******************************************************************************



 problem    phi,eq.ratio=3.7,3.8,3.9,4,
       det   t,k=300,  p,bar=1,
 react
   fuel=C2H4 moles=1 t,k=300
   oxid=O2 moles=3 t,k=300
 output
      trace=1e-16 siunits short
 end


                     DETONATION PROPERTIES OF AN IDEAL REACTING GAS
 CASE =                

             REACTANT                       MOLES         ENERGY      TEMP
                                                         KJ/KG-MOL      K
 FUEL        C2H4                         1.0000000     52579.505    300.000
 OXIDANT     O2                           3.0000000        54.358    300.000

 O/F=    0.92485  %FUEL= 51.952093  R,EQ.RATIO= 3.700000  PHI,EQ.RATIO= 3.700000

 UNBURNED GAS

 P1, BAR           1.0000
 T1, K             300.00
 H1, KJ/KG         974.54
 M1, (1/n)         29.820
 GAMMA1            1.2905
 SON VEL1,M/SEC     328.5

 BURNED GAS

 P, BAR            34.390
 T, K             2809.31
 RHO, KG/CU M    2.1867 0
 H, KJ/KG         3134.51
 U, KJ/KG         1561.83
 G, KJ/KG        -37598.4
 S, KJ/(KG)(K)    14.4993

 M, (1/n)          14.852
 MW, MOL WT        13.946
 (dLV/dLP)t      -1.00393
 (dLV/dLT)p        1.0542
 Cp, KJ/(KG)(K)    4.1470
 GAMMAs            1.1711
 SON VEL,M/SEC     1357.1

 DETONATION PARAMETERS

 P/P1              34.390
 T/T1               9.364
 M/M1              0.4981
 RHO/RHO1          1.8291
 DET MACH NUMBER   7.5555
 DET VEL,M/SEC     2482.3

 MOLE FRACTIONS

 *C              1.9898-7
 *CH             5.2975-7
 CH2             1.1807-5
 CH3             2.9023-4
 CH2OH           2.1807-9
 CH3O            4.524-10
 CH4             8.9561-4
 CH3OH           1.3990-9
 *CO             4.1866-1
 *CO2            1.1388-5
 COOH            4.678-10
 *C2             9.3015-8
 C2H             4.4039-5
 C2H2,acetylene  1.6996-2
 C2H2,vinylidene 3.3466-5
 CH2CO,ketene    1.2430-5
 O(CH)2O         4.267-12
 C2H3,vinyl      1.5408-5
 CH3CO,acetyl    2.0127-8
 C2H4            8.5500-5
 C2H4O,ethylen-o 2.270-12
 CH3CHO,ethanal  3.8664-9
 CH3COOH         1.285-13
 C2H5            1.3471-7
 C2H6            7.1932-8
 C2H5OH          5.645-13
 CH3OCH3         1.017-14
 C2O             9.5027-7
 *C3             9.6803-7
 C3H3,1-propynl  7.8119-8
 C3H3,2-propynl  6.2575-5
 C3H4,allene     3.8938-6
 C3H4,propyne    8.4605-6
 C3H4,cyclo-     7.3966-8
 C3H5,allyl      1.0003-7
 C3H6,propylene  4.8692-8
 C3H6,cyclo-     3.335-10
 C3H6O,propylox  8.815-16
 C3H6O,acetone   5.832-13
 C3H6O,propanal  7.501-13
 C3H7,n-propyl   2.792-11
 C3H7,i-propyl   1.817-11
 C3H8            1.444-11
 C3O2            3.0192-8
 *C4             1.8102-9
 C4H2,butadiyne  2.4310-4
 C4H4,1,3-cyclo- 9.531-10
 C4H6,butadiene  1.0955-8
 C4H6,1butyne    1.8482-9
 C4H6,2butyne    9.520-10
 C4H6,cyclo-     3.945-11
 C4H8,1-butene   8.956-12
 C4H8,cis2-buten 2.889-12
 C4H8,tr2-butene 3.275-12
 C4H8,isobutene  3.243-12
 C4H8,cyclo-     7.867-15
 C4H9,n-butyl    9.670-15
 C4H9,i-butyl    4.574-15
 C4H9,s-butyl    6.053-15
 C4H9,t-butyl    8.124-16
 C4H10,n-butane  3.081-15
 C4H10,isobutane 8.544-16
 *C5             9.5008-9
 C5H6,1,3cyclo-  2.940-10
 C5H8,cyclo-     9.930-14
 C5H10,1-pentene 1.264-15
 C6H2            3.6736-6
 C6H5,phenyl     1.347-10
 C6H5O,phenoxy   9.433-15
 C6H6            5.100-10
 C6H5OH,phenol   1.313-14
 C7H7,benzyl     1.711-12
 C7H8            4.056-13
 C8H8,styrene    1.263-13
 C10H8,naphthale 6.340-15
 *H              9.8107-3
 HCO             1.4143-5
 HCCO            5.9366-7
 HO2             4.340-15
 *H2             4.9166-1
 HCHO,formaldehy 3.0844-6
 HCOOH           5.338-10
 H2O             9.3406-5
 H2O2            5.144-15
 *O              6.5821-9
 *OH             5.7552-7
 *O2             5.008-13
 C(gr)           6.1042-2

  * THERMODYNAMIC PROPERTIES FITTED TO 20000.K


                     DETONATION PROPERTIES OF AN IDEAL REACTING GAS
 CASE =                

             REACTANT                       MOLES         ENERGY      TEMP
                                                         KJ/KG-MOL      K
 FUEL        C2H4                         1.0000000     52579.505    300.000
 OXIDANT     O2                           3.0000000        54.358    300.000

 O/F=    0.90051  %FUEL= 52.617397  R,EQ.RATIO= 3.800000  PHI,EQ.RATIO= 3.800000

 UNBURNED GAS

 P1, BAR           1.0000
 T1, K             300.00
 H1, KJ/KG         987.00
 M1, (1/n)         29.794
 GAMMA1            1.2895
 SON VEL1,M/SEC     328.6

 BURNED GAS

 P, BAR            34.000
 T, K             2781.58
 RHO, KG/CU M    2.1826 0
 H, KJ/KG         3124.35
 U, KJ/KG         1566.58
 G, KJ/KG        -37183.6
 S, KJ/(KG)(K)    14.4910

 M, (1/n)          14.847
 MW, MOL WT        13.733
 (dLV/dLP)t      -1.00377
 (dLV/dLT)p        1.0508
 Cp, KJ/(KG)(K)    4.0825
 GAMMAs            1.1733
 SON VEL,M/SEC     1351.9

 DETONATION PARAMETERS

 P/P1              34.000
 T/T1               9.272
 M/M1              0.4983
 RHO/RHO1          1.8273
 DET MACH NUMBER   7.5185
 DET VEL,M/SEC     2470.4

 MOLE FRACTIONS

 *C              1.4626-7
 *CH             4.1147-7
 CH2             1.0068-5
 CH3             2.7543-4
 CH2OH           2.0521-9
 CH3O            4.173-10
 CH4             9.3203-4
 CH3OH           1.4270-9
 *CO             4.0657-1
 *CO2            1.1481-5
 COOH            4.381-10
 *C2             6.5458-8
 C2H             3.4693-5
 C2H2,acetylene  1.5507-2
 C2H2,vinylidene 2.8348-5
 CH2CO,ketene    1.1811-5
 O(CH)2O         3.998-12
 C2H3,vinyl      1.3730-5
 CH3CO,acetyl    1.8811-8
 C2H4            8.4756-5
 C2H4O,ethylen-o 2.166-12
 CH3CHO,ethanal  3.8828-9
 CH3COOH         1.326-13
 C2H5            1.3022-7
 C2H6            7.5922-8
 C2H5OH          5.859-13
 CH3OCH3         1.033-14
 C2O             7.7577-7
 *C3             6.8501-7
 C3H3,1-propynl  6.5442-8
 C3H3,2-propynl  5.4903-5
 C3H4,allene     3.6352-6
 C3H4,propyne    7.9240-6
 C3H4,cyclo-     6.6584-8
 C3H5,allyl      9.4449-8
 C3H6,propylene  4.9176-8
 C3H6,cyclo-     3.312-10
 C3H6O,propylox  8.595-16
 C3H6O,acetone   6.020-13
 C3H6O,propanal  7.615-13
 C3H7,n-propyl   2.731-11
 C3H7,i-propyl   1.788-11
 C3H8            1.544-11
 C3O2            2.6796-8
 *C4             1.1701-9
 C4H2,butadiyne  2.0200-4
 C4H4,1,3-cyclo- 8.198-10
 C4H6,butadiene  1.0477-8
 C4H6,1butyne    1.7539-9
 C4H6,2butyne    9.121-10
 C4H6,cyclo-     3.750-11
 C4H8,1-butene   9.162-12
 C4H8,cis2-buten 2.971-12
 C4H8,tr2-butene 3.367-12
 C4H8,isobutene  3.342-12
 C4H8,cyclo-     7.933-15
 C4H9,n-butyl    9.628-15
 C4H9,i-butyl    4.569-15
 C4H9,s-butyl    6.033-15
 C4H9,t-butyl    8.191-16
 C4H10,n-butane  3.333-15
 C4H10,isobutane 9.275-16
 *C5             6.1032-9
 C5H6,1,3cyclo-  2.821-10
 C5H8,cyclo-     9.988-14
 C5H10,1-pentene 1.312-15
 C6H2            2.7785-6
 C6H5,phenyl     1.186-10
 C6H5O,phenoxy   8.642-15
 C6H6            5.014-10
 C6H5OH,phenol   1.283-14
 C7H7,benzyl     1.590-12
 C7H8            4.065-13
 C8H8,styrene    1.216-13
 C10H8,naphthale 6.075-15
 *H              8.8860-3
 HCO             1.2901-5
 HCCO            5.1078-7
 HO2             3.685-15
 *H2             4.9228-1
 HCHO,formaldehy 3.0075-6
 HCOOH           5.355-10
 H2O             9.6192-5
 H2O2            4.664-15
 *O              5.4304-9
 *OH             5.2337-7
 *O2             4.258-13
 C(gr)           7.4972-2

  * THERMODYNAMIC PROPERTIES FITTED TO 20000.K


                     DETONATION PROPERTIES OF AN IDEAL REACTING GAS
 CASE =                

             REACTANT                       MOLES         ENERGY      TEMP
                                                         KJ/KG-MOL      K
 FUEL        C2H4                         1.0000000     52579.505    300.000
 OXIDANT     O2                           3.0000000        54.358    300.000

 O/F=    0.87742  %FUEL= 53.264528  R,EQ.RATIO= 3.900000  PHI,EQ.RATIO= 3.900000

 UNBURNED GAS

 P1, BAR           1.0000
 T1, K             300.00
 H1, KJ/KG         999.12
 M1, (1/n)         29.769
 GAMMA1            1.2887
 SON VEL1,M/SEC     328.6

 BURNED GAS

 P, BAR            33.620
 T, K             2754.45
 RHO, KG/CU M    2.1786 0
 H, KJ/KG         3114.38
 U, KJ/KG         1571.18
 G, KJ/KG        -36777.1
 S, KJ/(KG)(K)    14.4825

 M, (1/n)          14.841
 MW, MOL WT        13.534
 (dLV/dLP)t      -1.00362
 (dLV/dLT)p        1.0477
 Cp, KJ/(KG)(K)    4.0217
 GAMMAs            1.1755
 SON VEL,M/SEC     1346.9

 DETONATION PARAMETERS

 P/P1              33.620
 T/T1               9.182
 M/M1              0.4985
 RHO/RHO1          1.8254
 DET MACH NUMBER   7.4821
 DET VEL,M/SEC     2458.6

 MOLE FRACTIONS

 *C              1.0764-7
 *CH             3.1982-7
 CH2             8.5867-6
 CH3             2.6127-4
 CH2OH           1.9310-9
 CH3O            3.849-10
 CH4             9.6919-4
 CH3OH           1.4548-9
 *CO             3.9520-1
 *CO2            1.1590-5
 COOH            4.108-10
 *C2             4.6118-8
 C2H             2.7347-5
 C2H2,acetylene  1.4148-2
 C2H2,vinylidene 2.4016-5
 CH2CO,ketene    1.1226-5
 O(CH)2O         3.749-12
 C2H3,vinyl      1.2231-5
 CH3CO,acetyl    1.7582-8
 C2H4            8.3950-5
 C2H4O,ethylen-o 2.067-12
 CH3CHO,ethanal  3.8976-9
 CH3COOH         1.369-13
 C2H5            1.2575-7
 C2H6            8.0007-8
 C2H5OH          6.075-13
 CH3OCH3         1.049-14
 C2O             6.3413-7
 *C3             4.8523-7
 C3H3,1-propynl  5.4811-8
 C3H3,2-propynl  4.8157-5
 C3H4,allene     3.3914-6
 C3H4,propyne    7.4161-6
 C3H4,cyclo-     5.9901-8
 C3H5,allyl      8.9091-8
 C3H6,propylene  4.9589-8
 C3H6,cyclo-     3.285-10
 C3H6O,propylox  8.373-16
 C3H6O,acetone   6.206-13
 C3H6O,propanal  7.722-13
 C3H7,n-propyl   2.666-11
 C3H7,i-propyl   1.755-11
 C3H8            1.647-11
 C3H8O,1propanol 1.048-16
 C3O2            2.3819-8
 *C4             7.574-10
 C4H2,butadiyne  1.6786-4
 C4H4,1,3-cyclo- 7.048-10
 C4H6,butadiene  1.0010-8
 C4H6,1butyne    1.6619-9
 C4H6,2butyne    8.726-10
 C4H6,cyclo-     3.560-11
 C4H8,1-butene   9.353-12
 C4H8,cis2-buten 3.049-12
 C4H8,tr2-butene 3.454-12
 C4H8,isobutene  3.436-12
 C4H8,cyclo-     7.983-15
 C4H9,n-butyl    9.561-15
 C4H9,i-butyl    4.553-15
 C4H9,s-butyl    5.999-15
 C4H9,t-butyl    8.238-16
 C4H10,n-butane  3.595-15
 C4H10,isobutane 1.004-15
 *C5             3.9253-9
 C5H6,1,3cyclo-  2.703-10
 C5H8,cyclo-     1.002-13
 C5H10,1-pentene 1.358-15
 C6H2            2.1021-6
 C6H5,phenyl     1.044-10
 C6H5O,phenoxy   7.913-15
 C6H6            4.922-10
 C6H5OH,phenol   1.252-14
 C7H7,benzyl     1.475-12
 C7H8            4.065-13
 C8H8,styrene    1.168-13
 C10H8,naphthale 5.809-15
 *H              8.0522-3
 HCO             1.1776-5
 HCCO            4.3984-7
 HO2             3.133-15
 *H2             4.9283-1
 HCHO,formaldehy 2.9333-6
 HCOOH           5.375-10
 H2O             9.9083-5
 H2O2            4.233-15
 *O              4.4863-9
 *OH             4.7633-7
 *O2             3.626-13
 C(gr)           8.8011-2

  * THERMODYNAMIC PROPERTIES FITTED TO 20000.K


                     DETONATION PROPERTIES OF AN IDEAL REACTING GAS
 CASE =                

             REACTANT                       MOLES         ENERGY      TEMP
                                                         KJ/KG-MOL      K
 FUEL        C2H4                         1.0000000     52579.505    300.000
 OXIDANT     O2                           3.0000000        54.358    300.000

 O/F=    0.85549  %FUEL= 53.894221  R,EQ.RATIO= 4.000000  PHI,EQ.RATIO= 4.000000

 UNBURNED GAS

 P1, BAR           1.0000
 T1, K             300.00
 H1, KJ/KG        1010.91
 M1, (1/n)         29.744
 GAMMA1            1.2878
 SON VEL1,M/SEC     328.6

 BURNED GAS

 P, BAR            33.249
 T, K             2727.90
 RHO, KG/CU M    2.1746 0
 H, KJ/KG         3104.60
 U, KJ/KG         1575.64
 G, KJ/KG        -36378.7
 S, KJ/(KG)(K)    14.4739

 M, (1/n)          14.834
 MW, MOL WT        13.347
 (dLV/dLP)t      -1.00350
 (dLV/dLT)p        1.0449
 Cp, KJ/(KG)(K)    3.9644
 GAMMAs            1.1777
 SON VEL,M/SEC     1341.9

 DETONATION PARAMETERS

 P/P1              33.249
 T/T1               9.093
 M/M1              0.4987
 RHO/RHO1          1.8237
 DET MACH NUMBER   7.4463
 DET VEL,M/SEC     2447.1

 MOLE FRACTIONS

 *C              7.9301-8
 *CH             2.4876-7
 CH2             7.3242-6
 CH3             2.4775-4
 CH2OH           1.8171-9
 CH3O            3.550-10
 CH4             1.0071-3
 CH3OH           1.4826-9
 *CO             3.8449-1
 *CO2            1.1715-5
 COOH            3.856-10
 *C2             3.2529-8
 C2H             2.1570-5
 C2H2,acetylene  1.2908-2
 C2H2,vinylidene 2.0348-5
 CH2CO,ketene    1.0673-5
 O(CH)2O         3.519-12
 C2H3,vinyl      1.0893-5
 CH3CO,acetyl    1.6435-8
 C2H4            8.3090-5
 C2H4O,ethylen-o 1.972-12
 CH3CHO,ethanal  3.9110-9
 CH3COOH         1.412-13
 C2H5            1.2130-7
 C2H6            8.4189-8
 C2H5OH          6.292-13
 CH3OCH3         1.064-14
 C2O             5.1902-7
 *C3             3.4406-7
 C3H3,1-propynl  4.5900-8
 C3H3,2-propynl  4.2229-5
 C3H4,allene     3.1619-6
 C3H4,propyne    6.9364-6
 C3H4,cyclo-     5.3859-8
 C3H5,allyl      8.3960-8
 C3H6,propylene  4.9937-8
 C3H6,cyclo-     3.253-10
 C3H6O,propylox  8.150-16
 C3H6O,acetone   6.392-13
 C3H6O,propanal  7.823-13
 C3H7,n-propyl   2.599-11
 C3H7,i-propyl   1.720-11
 C3H8            1.753-11
 C3H8O,1propanol 1.099-16
 C3O2            2.1203-8
 *C4             4.908-10
 C4H2,butadiyne  1.3952-4
 C4H4,1,3-cyclo- 6.056-10
 C4H6,butadiene  9.5574-9
 C4H6,1butyne    1.5728-9
 C4H6,2butyne    8.337-10
 C4H6,cyclo-     3.375-11
 C4H8,1-butene   9.529-12
 C4H8,cis2-buten 3.122-12
 C4H8,tr2-butene 3.535-12
 C4H8,isobutene  3.526-12
 C4H8,cyclo-     8.017-15
 C4H9,n-butyl    9.474-15
 C4H9,i-butyl    4.527-15
 C4H9,s-butyl    5.951-15
 C4H9,t-butyl    8.266-16
 C4H10,n-butane  3.867-15
 C4H10,isobutane 1.083-15
 *C5             2.5277-9
 C5H6,1,3cyclo-  2.587-10
 C5H8,cyclo-     1.004-13
 C5H10,1-pentene 1.403-15
 C6H2            1.5909-6
 C6H5,phenyl     9.174-11
 C6H5O,phenoxy   7.241-15
 C6H6            4.825-10
 C6H5OH,phenol   1.221-14
 C7H7,benzyl     1.366-12
 C7H8            4.057-13
 C8H8,styrene    1.120-13
 C10H8,naphthale 5.545-15
 *H              7.2998-3
 HCO             1.0756-5
 HCCO            3.7906-7
 HO2             2.667-15
 *H2             4.9334-1
 HCHO,formaldehy 2.8618-6
 HCOOH           5.399-10
 H2O             1.0208-4
 H2O2            3.845-15
 *O              3.7114-9
 *OH             4.3385-7
 *O2             3.094-13
 C(gr)           1.0024-1

  * THERMODYNAMIC PROPERTIES FITTED TO 20000.K



