
 *******************************************************************************

         NASA-GLENN CHEMICAL EQUILIBRIUM PROGRAM CEA2, MAY 21, 2004
                   BY  BONNIE MCBRIDE AND SANFORD GORDON
      REFS: NASA RP-1311, PART I, 1994 AND NASA RP-1311, PART II, 1996

 *******************************************************************************



 problem    phi,eq.ratio=3.7,3.8,3.9,4,
       det   t,k=300,  p,bar=1,
 react
   fuel=C2H4 moles=1 t,k=300
   oxid=O2 moles=3 t,k=300
   oxid=N2 moles=11.2857 t,k=300
 output
      trace=1e-16 siunits short
 end


                     DETONATION PROPERTIES OF AN IDEAL REACTING GAS
 CASE =                

             REACTANT                       MOLES         ENERGY      TEMP
                                                         KJ/KG-MOL      K
 FUEL        C2H4                         1.0000000     52579.505    300.000
 OXIDANT     O2                           3.0000000        54.358    300.000
 OXIDANT     N2                          11.2857000        53.881    300.000

 O/F=    3.97072  %FUEL= 20.117824  R,EQ.RATIO= 3.700000  PHI,EQ.RATIO= 3.700000

 UNBURNED GAS

 P1, BAR           1.0000
 T1, K             300.00
 H1, KJ/KG         378.56
 M1, (1/n)         28.686
 GAMMA1            1.3505
 SON VEL1,M/SEC     342.7

 BURNED GAS

 P, BAR            15.336
 T, K             1928.22
 RHO, KG/CU M    2.0011 0
 H, KJ/KG         1360.06
 U, KJ/KG          593.67
 G, KJ/KG        -19127.2
 S, KJ/(KG)(K)    10.6249

 M, (1/n)          20.919
 MW, MOL WT        19.901
 (dLV/dLP)t      -1.00099
 (dLV/dLT)p        1.0068
 Cp, KJ/(KG)(K)    1.9246
 GAMMAs            1.2632
 SON VEL,M/SEC      983.9

 DETONATION PARAMETERS

 P/P1              15.336
 T/T1               6.427
 M/M1              0.7292
 RHO/RHO1          1.7400
 DET MACH NUMBER   4.9960
 DET VEL,M/SEC     1712.0

 MOLE FRACTIONS

 *C              3.793-13
 *CH             5.736-12
 CH2             4.0696-9
 CH3             6.2020-6
 CH2OH           2.674-11
 CH3O            2.371-12
 CH4             6.7493-4
 CH3OH           3.291-10
 *CN             3.8733-8
 CNN             3.543-16
 *CO             2.3120-1
 *CO2            3.1561-5
 COOH            1.995-11
 *C2             2.256-14
 C2H             8.885-10
 C2H2,acetylene  1.3235-4
 C2H2,vinylidene 8.1771-9
 CH2CO,ketene    5.2816-7
 O(CH)2O         8.424-14
 C2H3,vinyl      1.8028-8
 CH3CN           3.1331-6
 CH3CO,acetyl    1.897-10
 C2H4            6.2284-6
 C2H4O,ethylen-o 2.611-14
 CH3CHO,ethanal  4.431-10
 CH3COOH         4.636-14
 C2H5            1.4089-9
 C2H6            1.9821-8
 C2H5OH          6.258-14
 CH3OCH3         4.312-16
 CCN             2.497-16
 CNC             3.381-13
 OCCN            1.571-10
 C2N2            3.9116-7
 C2O             1.863-10
 *C3             2.742-13
 C3H3,1-propynl  5.258-12
 C3H3,2-propynl  3.5498-8
 C3H4,allene     1.7911-8
 C3H4,propyne    4.4913-8
 C3H4,cyclo-     6.415-11
 C3H5,allyl      3.648-10
 C3H6,propylene  1.7492-9
 C3H6,cyclo-     5.755-12
 C3H6O,acetone   4.920-14
 C3H6O,propanal  2.986-14
 C3H7,n-propyl   1.052-13
 C3H7,i-propyl   8.800-14
 C3H8            1.497-12
 CNCOCN          1.512-14
 C3O2            2.333-10
 C4H2,butadiyne  2.4709-8
 C4H4,1,3-cyclo- 1.013-13
 C4H6,butadiene  4.421-11
 C4H6,1butyne    3.691-12
 C4H6,2butyne    3.024-12
 C4H6,cyclo-     9.030-14
 C4H8,1-butene   1.223-13
 C4H8,cis2-buten 4.964-14
 C4H8,tr2-butene 5.577-14
 C4H8,isobutene  6.163-14
 C4H10,n-butane  1.169-16
 C4N2            6.329-11
 C5H6,1,3cyclo-  1.025-12
 C5H8,cyclo-     6.494-16
 C6H2            4.870-12
 C6H5,phenyl     1.906-14
 C6H6            5.274-12
 C7H7,benzyl     6.227-16
 C7H8            2.122-15
 *H              1.2953-4
 HCN             4.3378-3
 HCO             2.0140-7
 HCCN            5.677-14
 HCCO            5.774-10
 HNC             1.9035-4
 HNCO            7.3429-7
 HNO             1.762-13
 *H2             2.8137-1
 HCHO,formaldehy 4.3641-7
 HCOOH           2.501-10
 H2O             1.6571-4
 *N              5.046-11
 NCO             1.459-10
 *NH             8.232-10
 NH2             5.7402-8
 NH3             3.6309-5
 NH2OH           5.172-15
 *NO             2.431-10
 *N2             4.3302-1
 NCN             6.197-13
 N2H2            3.608-12
 N2H4            1.914-14
 N2O             4.108-14
 N3              8.191-16
 N3H             2.137-14
 *O              2.265-12
 *OH             7.5302-9
 *O2             5.799-16
 C(gr)           4.8702-2

  * THERMODYNAMIC PROPERTIES FITTED TO 20000.K


                     DETONATION PROPERTIES OF AN IDEAL REACTING GAS
 CASE =                

             REACTANT                       MOLES         ENERGY      TEMP
                                                         KJ/KG-MOL      K
 FUEL        C2H4                         1.0000000     52579.505    300.000
 OXIDANT     O2                           3.0000000        54.358    300.000
 OXIDANT     N2                          11.2857000        53.881    300.000

 O/F=    3.86622  %FUEL= 20.549815  R,EQ.RATIO= 3.800000  PHI,EQ.RATIO= 3.800000

 UNBURNED GAS

 P1, BAR           1.0000
 T1, K             300.00
 H1, KJ/KG         386.65
 M1, (1/n)         28.683
 GAMMA1            1.3496
 SON VEL1,M/SEC     342.6

 BURNED GAS

 P, BAR            15.292
 T, K             1917.68
 RHO, KG/CU M    2.0011 0
 H, KJ/KG         1365.07
 U, KJ/KG          600.91
 G, KJ/KG        -19040.6
 S, KJ/(KG)(K)    10.6408

 M, (1/n)          20.865
 MW, MOL WT        19.704
 (dLV/dLP)t      -1.00105
 (dLV/dLT)p        1.0071
 Cp, KJ/(KG)(K)    1.9334
 GAMMAs            1.2626
 SON VEL,M/SEC      982.3

 DETONATION PARAMETERS

 P/P1              15.292
 T/T1               6.392
 M/M1              0.7275
 RHO/RHO1          1.7402
 DET MACH NUMBER   4.9897
 DET VEL,M/SEC     1709.4

 MOLE FRACTIONS

 *C              2.952-13
 *CH             4.698-12
 CH2             3.6123-9
 CH3             6.0403-6
 CH2OH           2.618-11
 CH3O            2.288-12
 CH4             7.1510-4
 CH3OH           3.464-10
 *CN             3.3060-8
 CNN             2.803-16
 *CO             2.2766-1
 *CO2            3.2473-5
 COOH            1.947-11
 *C2             1.692-14
 C2H             7.354-10
 C2H2,acetylene  1.2411-4
 C2H2,vinylidene 7.2107-9
 CH2CO,ketene    5.1785-7
 O(CH)2O         8.275-14
 C2H3,vinyl      1.6681-8
 CH3CN           3.1187-6
 CH3CO,acetyl    1.849-10
 C2H4            6.3261-6
 C2H4O,ethylen-o 2.608-14
 CH3CHO,ethanal  4.605-10
 CH3COOH         4.995-14
 C2H5            1.4114-9
 C2H6            2.1468-8
 C2H5OH          6.772-14
 CH3OCH3         4.588-16
 CCN             1.878-16
 CNC             2.648-13
 OCCN            1.376-10
 C2N2            3.4610-7
 C2O             1.596-10
 *C3             2.060-13
 C3H3,1-propynl  4.626-12
 C3H3,2-propynl  3.2428-8
 C3H4,allene     1.7329-8
 C3H4,propyne    4.3561-8
 C3H4,cyclo-     6.028-11
 C3H5,allyl      3.588-10
 C3H6,propylene  1.8277-9
 C3H6,cyclo-     5.940-12
 C3H6O,acetone   5.298-14
 C3H6O,propanal  3.173-14
 C3H7,n-propyl   1.078-13
 C3H7,i-propyl   9.058-14
 C3H8            1.661-12
 CNCOCN          1.297-14
 C3O2            2.165-10
 C4H2,butadiyne  2.1460-8
 C4H4,1,3-cyclo- 9.171-14
 C4H6,butadiene  4.459-11
 C4H6,1butyne    3.665-12
 C4H6,2butyne    3.027-12
 C4H6,cyclo-     8.994-14
 C4H8,1-butene   1.309-13
 C4H8,cis2-buten 5.332-14
 C4H8,tr2-butene 5.991-14
 C4H8,isobutene  6.633-14
 C4H10,n-butane  1.327-16
 C4N2            5.192-11
 C5H6,1,3cyclo-  1.028-12
 C5H8,cyclo-     6.863-16
 C6H2            3.919-12
 C6H5,phenyl     1.771-14
 C6H6            5.391-12
 C7H7,benzyl     6.128-16
 C7H8            2.233-15
 *H              1.2027-4
 HCN             4.1423-3
 HCO             1.8981-7
 HCCN            4.594-14
 HCCO            5.191-10
 HNC             1.7792-4
 HNCO            7.2613-7
 HNO             1.614-13
 *H2             2.8464-1
 HCHO,formaldehy 4.3711-7
 HCOOH           2.599-10
 H2O             1.7354-4
 *N              4.238-11
 NCO             1.311-10
 *NH             7.270-10
 NH2             5.4225-8
 NH3             3.7539-5
 NH2OH           5.069-15
 *NO             2.216-10
 *N2             4.2649-1
 NCN             5.132-13
 N2H2            3.357-12
 N2H4            1.888-14
 N2O             3.728-14
 N3              6.895-16
 N3H             1.906-14
 *O              1.962-12
 *OH             7.0913-9
 *O2             5.207-16
 C(gr)           5.5669-2

  * THERMODYNAMIC PROPERTIES FITTED TO 20000.K


                     DETONATION PROPERTIES OF AN IDEAL REACTING GAS
 CASE =                

             REACTANT                       MOLES         ENERGY      TEMP
                                                         KJ/KG-MOL      K
 FUEL        C2H4                         1.0000000     52579.505    300.000
 OXIDANT     O2                           3.0000000        54.358    300.000
 OXIDANT     N2                          11.2857000        53.881    300.000

 O/F=    3.76709  %FUEL= 20.977158  R,EQ.RATIO= 3.900000  PHI,EQ.RATIO= 3.900000

 UNBURNED GAS

 P1, BAR           1.0000
 T1, K             300.00
 H1, KJ/KG         394.65
 M1, (1/n)         28.679
 GAMMA1            1.3487
 SON VEL1,M/SEC     342.5

 BURNED GAS

 P, BAR            15.249
 T, K             1907.53
 RHO, KG/CU M    2.0010 0
 H, KJ/KG         1370.34
 U, KJ/KG          608.28
 G, KJ/KG        -18957.3
 S, KJ/(KG)(K)    10.6566

 M, (1/n)          20.812
 MW, MOL WT        19.513
 (dLV/dLP)t      -1.00111
 (dLV/dLT)p        1.0075
 Cp, KJ/(KG)(K)    1.9423
 GAMMAs            1.2621
 SON VEL,M/SEC      980.7

 DETONATION PARAMETERS

 P/P1              15.249
 T/T1               6.358
 M/M1              0.7257
 RHO/RHO1          1.7404
 DET MACH NUMBER   4.9834
 DET VEL,M/SEC     1706.8

 MOLE FRACTIONS

 *C              2.314-13
 *CH             3.868-12
 CH2             3.2164-9
 CH3             5.8857-6
 CH2OH           2.563-11
 CH3O            2.211-12
 CH4             7.5626-4
 CH3OH           3.640-10
 *CN             2.8338-8
 CNN             2.232-16
 *CO             2.2423-1
 *CO2            3.3376-5
 COOH            1.900-11
 *C2             1.280-14
 C2H             6.118-10
 C2H2,acetylene  1.1657-4
 C2H2,vinylidene 6.3793-9
 CH2CO,ketene    5.0788-7
 O(CH)2O         8.130-14
 C2H3,vinyl      1.5465-8
 CH3CN           3.1040-6
 CH3CO,acetyl    1.804-10
 C2H4            6.4207-6
 C2H4O,ethylen-o 2.604-14
 CH3CHO,ethanal  4.780-10
 CH3COOH         5.368-14
 C2H5            1.4134-9
 C2H6            2.3192-8
 C2H5OH          7.309-14
 CH3OCH3         4.872-16
 CCN             1.423-16
 CNC             2.087-13
 OCCN            1.210-10
 C2N2            3.0721-7
 C2O             1.373-10
 *C3             1.560-13
 C3H3,1-propynl  4.083-12
 C3H3,2-propynl  2.9691-8
 C3H4,allene     1.6777-8
 C3H4,propyne    4.2273-8
 C3H4,cyclo-     5.672-11
 C3H5,allyl      3.531-10
 C3H6,propylene  1.9066-9
 C3H6,cyclo-     6.123-12
 C3H6O,acetone   5.690-14
 C3H6O,propanal  3.365-14
 C3H7,n-propyl   1.104-13
 C3H7,i-propyl   9.313-14
 C3H8            1.836-12
 CNCOCN          1.117-14
 C3O2            2.012-10
 C4H2,butadiyne  1.8707-8
 C4H4,1,3-cyclo- 8.325-14
 C4H6,butadiene  4.494-11
 C4H6,1butyne    3.638-12
 C4H6,2butyne    3.030-12
 C4H6,cyclo-     8.955-14
 C4H8,1-butene   1.397-13
 C4H8,cis2-buten 5.714-14
 C4H8,tr2-butene 6.420-14
 C4H8,isobutene  7.121-14
 C4H10,n-butane  1.500-16
 C4N2            4.282-11
 C5H6,1,3cyclo-  1.031-12
 C5H8,cyclo-     7.240-16
 C6H2            3.171-12
 C6H5,phenyl     1.647-14
 C6H6            5.506-12
 C7H7,benzyl     6.030-16
 C7H8            2.345-15
 *H              1.1189-4
 HCN             3.9598-3
 HCO             1.7914-7
 HCCN            3.739-14
 HCCO            4.680-10
 HNC             1.6659-4
 HNCO            7.1808-7
 HNO             1.481-13
 *H2             2.8781-1
 HCHO,formaldehy 4.3767-7
 HCOOH           2.697-10
 H2O             1.8146-4
 *N              3.577-11
 NCO             1.182-10
 *NH             6.441-10
 NH2             5.1292-8
 NH3             3.8764-5
 NH2OH           4.969-15
 *NO             2.024-10
 *N2             4.2016-1
 NCN             4.272-13
 N2H2            3.130-12
 N2H4            1.861-14
 N2O             3.391-14
 N3              5.830-16
 N3H             1.704-14
 *O              1.706-12
 *OH             6.6877-9
 *O2             4.689-16
 C(gr)           6.2417-2

  * THERMODYNAMIC PROPERTIES FITTED TO 20000.K


                     DETONATION PROPERTIES OF AN IDEAL REACTING GAS
 CASE =                

             REACTANT                       MOLES         ENERGY      TEMP
                                                         KJ/KG-MOL      K
 FUEL        C2H4                         1.0000000     52579.505    300.000
 OXIDANT     O2                           3.0000000        54.358    300.000
 OXIDANT     N2                          11.2857000        53.881    300.000

 O/F=    3.67291  %FUEL= 21.399929  R,EQ.RATIO= 4.000000  PHI,EQ.RATIO= 4.000000

 UNBURNED GAS

 P1, BAR           1.0000
 T1, K             300.00
 H1, KJ/KG         402.57
 M1, (1/n)         28.676
 GAMMA1            1.3478
 SON VEL1,M/SEC     342.4

 BURNED GAS

 P, BAR            15.207
 T, K             1897.58
 RHO, KG/CU M    2.0010 0
 H, KJ/KG         1375.48
 U, KJ/KG          615.49
 G, KJ/KG        -18875.4
 S, KJ/(KG)(K)    10.6720

 M, (1/n)          20.760
 MW, MOL WT        19.329
 (dLV/dLP)t      -1.00117
 (dLV/dLT)p        1.0079
 Cp, KJ/(KG)(K)    1.9513
 GAMMAs            1.2615
 SON VEL,M/SEC      979.2

 DETONATION PARAMETERS

 P/P1              15.207
 T/T1               6.325
 M/M1              0.7240
 RHO/RHO1          1.7406
 DET MACH NUMBER   4.9774
 DET VEL,M/SEC     1704.3

 MOLE FRACTIONS

 *C              1.818-13
 *CH             3.190-12
 CH2             2.8659-9
 CH3             5.7331-6
 CH2OH           2.508-11
 CH3O            2.135-12
 CH4             7.9876-4
 CH3OH           3.820-10
 *CN             2.4326-8
 CNN             1.781-16
 *CO             2.2091-1
 *CO2            3.4302-5
 COOH            1.855-11
 *C2             9.699-15
 C2H             5.098-10
 C2H2,acetylene  1.0951-4
 C2H2,vinylidene 5.6479-9
 CH2CO,ketene    4.9803-7
 O(CH)2O         7.987-14
 C2H3,vinyl      1.4338-8
 CH3CN           3.0876-6
 CH3CO,acetyl    1.759-10
 C2H4            6.5107-6
 C2H4O,ethylen-o 2.598-14
 CH3CHO,ethanal  4.955-10
 CH3COOH         5.761-14
 C2H5            1.4139-9
 C2H6            2.5006-8
 C2H5OH          7.874-14
 CH3OCH3         5.164-16
 CCN             1.081-16
 CNC             1.649-13
 OCCN            1.065-10
 C2N2            2.7302-7
 C2O             1.183-10
 *C3             1.184-13
 C3H3,1-propynl  3.606-12
 C3H3,2-propynl  2.7190-8
 C3H4,allene     1.6234-8
 C3H4,propyne    4.1002-8
 C3H4,cyclo-     5.336-11
 C3H5,allyl      3.471-10
 C3H6,propylene  1.9859-9
 C3H6,cyclo-     6.301-12
 C3H6O,acetone   6.100-14
 C3H6O,propanal  3.563-14
 C3H7,n-propyl   1.128-13
 C3H7,i-propyl   9.558-14
 C3H8            2.024-12
 CNCOCN          9.642-15
 C3O2            1.871-10
 C4H2,butadiyne  1.6322-8
 C4H4,1,3-cyclo- 7.558-14
 C4H6,butadiene  4.524-11
 C4H6,1butyne    3.608-12
 C4H6,2butyne    3.029-12
 C4H6,cyclo-     8.907-14
 C4H8,1-butene   1.488-13
 C4H8,cis2-buten 6.110-14
 C4H8,tr2-butene 6.864-14
 C4H8,isobutene  7.627-14
 C4H10,n-butane  1.690-16
 C4N2            3.537-11
 C5H6,1,3cyclo-  1.033-12
 C5H8,cyclo-     7.621-16
 C6H2            2.570-12
 C6H5,phenyl     1.532-14
 C6H6            5.615-12
 C7H7,benzyl     5.927-16
 C7H8            2.457-15
 *H              1.0414-4
 HCN             3.7864-3
 HCO             1.6913-7
 HCCN            3.048-14
 HCCO            4.222-10
 HNC             1.5604-4
 HNCO            7.1013-7
 HNO             1.360-13
 *H2             2.9088-1
 HCHO,formaldehy 4.3808-7
 HCOOH           2.797-10
 H2O             1.8961-4
 *N              3.023-11
 NCO             1.066-10
 *NH             5.712-10
 NH2             4.8526-8
 NH3             3.9995-5
 NH2OH           4.869-15
 *NO             1.851-10
 *N2             4.1401-1
 NCN             3.562-13
 N2H2            2.918-12
 N2H4            1.834-14
 N2O             3.088-14
 N3              4.938-16
 N3H             1.525-14
 *O              1.486-12
 *OH             6.3098-9
 *O2             4.227-16
 C(gr)           6.8960-2

  * THERMODYNAMIC PROPERTIES FITTED TO 20000.K



