
 *******************************************************************************

         NASA-GLENN CHEMICAL EQUILIBRIUM PROGRAM CEA2, MAY 21, 2004
                   BY  BONNIE MCBRIDE AND SANFORD GORDON
      REFS: NASA RP-1311, PART I, 1994 AND NASA RP-1311, PART II, 1996

 *******************************************************************************



 problem    phi,eq.ratio=2.1,2.2,2.3,2.4,2.5,2.6,2.7,2.8,2.9,3,3.1,3.2,3.3,3.4,3.
 5,3.6,
       det   t,k=300,  p,bar=1,
 react
   fuel=C2H5OH moles=1 t,k=300
   oxid=O2 moles=3 t,k=300
 output
      trace=1e-16 siunits short
 end


                     DETONATION PROPERTIES OF AN IDEAL REACTING GAS
 CASE =                

             REACTANT                       MOLES         ENERGY      TEMP
                                                         KJ/KG-MOL      K
 FUEL        C2H5OH                       1.0000000   -234828.916    300.000
 OXIDANT     O2                           3.0000000        54.358    300.000

 O/F=    0.99228  %FUEL= 50.193868  R,EQ.RATIO= 1.814815  PHI,EQ.RATIO= 2.100000

 UNBURNED GAS

 P1, BAR           1.0000
 T1, K             300.00
 H1, KJ/KG       -2557.73
 M1, (1/n)         37.792
 GAMMA1            1.2311
 SON VEL1,M/SEC     285.0

 BURNED GAS

 P, BAR            41.587
 T, K             3245.08
 RHO, KG/CU M    2.7735 0
 H, KJ/KG         -486.61
 U, KJ/KG        -1986.08
 G, KJ/KG        -44238.0
 S, KJ/(KG)(K)    13.4824

 M, (1/n)          17.994
 (dLV/dLP)t      -1.01027
 (dLV/dLT)p        1.1892
 Cp, KJ/(KG)(K)    4.1034
 GAMMAs            1.1751
 SON VEL,M/SEC     1327.4

 DETONATION PARAMETERS

 P/P1              41.587
 T/T1              10.817
 M/M1              0.4761
 RHO/RHO1          1.8305
 DET MACH NUMBER   8.5243
 DET VEL,M/SEC     2429.8

 MOLE FRACTIONS

 *C              8.058-10
 *CH             8.307-10
 CH2             4.2580-9
 CH3             2.0195-8
 CH2OH           1.4686-9
 CH3O            4.038-10
 CH4             1.4938-8
 CH3OH           2.607-10
 CH3OOH          2.916-15
 *CO             3.4297-1
 *CO2            4.9104-2
 COOH            4.4178-6
 *C2             5.157-14
 C2H             4.360-12
 C2H2,acetylene  1.900-10
 C2H2,vinylidene 1.008-12
 CH2CO,ketene    6.944-10
 O(CH)2O         2.497-12
 HO(CO)2OH       6.675-14
 C2H3,vinyl      1.915-13
 CH3CO,acetyl    1.148-12
 C2H4            2.067-13
 CH3CHO,ethanal  6.809-14
 CH3COOH         1.364-14
 OHCH2COOH       7.820-16
 C2H5            3.716-16
 C2O             6.209-10
 C3O2            4.246-12
 *H              2.5465-2
 HCO             2.1926-5
 HCCO            1.550-10
 HO2             2.0209-6
 *H2             2.6773-1
 HCHO,formaldehy 1.5887-6
 HCOOH           1.6334-6
 H2O             3.0157-1
 H2O2            8.0143-7
 *O              6.4001-4
 *OH             1.2204-2
 *O2             2.8097-4
 O3              6.918-11

  * THERMODYNAMIC PROPERTIES FITTED TO 20000.K


                     DETONATION PROPERTIES OF AN IDEAL REACTING GAS
 CASE =                

             REACTANT                       MOLES         ENERGY      TEMP
                                                         KJ/KG-MOL      K
 FUEL        C2H5OH                       1.0000000   -234828.916    300.000
 OXIDANT     O2                           3.0000000        54.358    300.000

 O/F=    0.94717  %FUEL= 51.356537  R,EQ.RATIO= 1.878049  PHI,EQ.RATIO= 2.200000

 UNBURNED GAS

 P1, BAR           1.0000
 T1, K             300.00
 H1, KJ/KG       -2617.02
 M1, (1/n)         37.951
 GAMMA1            1.2285
 SON VEL1,M/SEC     284.2

 BURNED GAS

 P, BAR            41.191
 T, K             3154.23
 RHO, KG/CU M    2.7756 0
 H, KJ/KG         -572.24
 U, KJ/KG        -2056.29
 G, KJ/KG        -43353.2
 S, KJ/(KG)(K)    13.5630

 M, (1/n)          17.672
 (dLV/dLP)t      -1.00770
 (dLV/dLT)p        1.1445
 Cp, KJ/(KG)(K)    3.7824
 GAMMAs            1.1838
 SON VEL,M/SEC     1325.4

 DETONATION PARAMETERS

 P/P1              41.191
 T/T1              10.514
 M/M1              0.4656
 RHO/RHO1          1.8242
 DET MACH NUMBER   8.5092
 DET VEL,M/SEC     2417.9

 MOLE FRACTIONS

 *C              4.987-10
 *CH             6.071-10
 CH2             4.0508-9
 CH3             2.5810-8
 CH2OH           1.5050-9
 CH3O            3.921-10
 CH4             2.4560-8
 CH3OH           3.354-10
 CH3OOH          2.323-15
 *CO             3.4916-1
 *CO2            4.4819-2
 COOH            3.4525-6
 *C2             3.758-14
 C2H             4.330-12
 C2H2,acetylene  2.799-10
 C2H2,vinylidene 1.237-12
 CH2CO,ketene    9.274-10
 O(CH)2O         2.633-12
 HO(CO)2OH       5.425-14
 C2H3,vinyl      2.741-13
 CH3CO,acetyl    1.511-12
 C2H4            3.967-13
 C2H4O,ethylen-o 1.136-16
 CH3CHO,ethanal  1.104-13
 CH3COOH         1.934-14
 OHCH2COOH       8.539-16
 C2H5            6.890-16
 C2H6            1.178-16
 C2O             5.357-10
 C3H3,2-propynl  1.325-16
 C3O2            4.841-12
 *H              2.0823-2
 HCO             1.9631-5
 HCCO            1.570-10
 HO2             9.4093-7
 *H2             2.8985-1
 HCHO,formaldehy 1.7272-6
 HCOOH           1.5571-6
 H2O             2.8661-1
 H2O2            4.5283-7
 *O              3.2951-4
 *OH             8.2598-3
 *O2             1.2765-4
 O3              1.746-11

  * THERMODYNAMIC PROPERTIES FITTED TO 20000.K


                     DETONATION PROPERTIES OF AN IDEAL REACTING GAS
 CASE =                

             REACTANT                       MOLES         ENERGY      TEMP
                                                         KJ/KG-MOL      K
 FUEL        C2H5OH                       1.0000000   -234828.916    300.000
 OXIDANT     O2                           3.0000000        54.358    300.000

 O/F=    0.90599  %FUEL= 52.466161  R,EQ.RATIO= 1.939759  PHI,EQ.RATIO= 2.300000

 UNBURNED GAS

 P1, BAR           1.0000
 T1, K             300.00
 H1, KJ/KG       -2673.60
 M1, (1/n)         38.104
 GAMMA1            1.2260
 SON VEL1,M/SEC     283.3

 BURNED GAS

 P, BAR            40.672
 T, K             3059.08
 RHO, KG/CU M    2.7768 0
 H, KJ/KG         -660.76
 U, KJ/KG        -2125.48
 G, KJ/KG        -42371.4
 S, KJ/(KG)(K)    13.6350

 M, (1/n)          17.365
 (dLV/dLP)t      -1.00569
 (dLV/dLT)p        1.1090
 Cp, KJ/(KG)(K)    3.5191
 GAMMAs            1.1928
 SON VEL,M/SEC     1321.8

 DETONATION PARAMETERS

 P/P1              40.672
 T/T1              10.197
 M/M1              0.4557
 RHO/RHO1          1.8177
 DET MACH NUMBER   8.4810
 DET VEL,M/SEC     2402.6

 MOLE FRACTIONS

 *C              2.856-10
 *CH             4.141-10
 CH2             3.6665-9
 CH3             3.2120-8
 CH2OH           1.4941-9
 CH3O            3.670-10
 CH4             4.0123-8
 CH3OH           4.249-10
 CH3OOH          1.762-15
 *CO             3.5439-1
 *CO2            4.1116-2
 COOH            2.6389-6
 *C2             2.514-14
 C2H             4.046-12
 C2H2,acetylene  4.016-10
 C2H2,vinylidene 1.447-12
 CH2CO,ketene    1.2165-9
 O(CH)2O         2.709-12
 HO(CO)2OH       4.351-14
 C2H3,vinyl      3.769-13
 CH3CO,acetyl    1.932-12
 C2H4            7.487-13
 C2H4O,ethylen-o 1.572-16
 CH3CHO,ethanal  1.762-13
 CH3COOH         2.712-14
 OHCH2COOH       9.147-16
 C2H5            1.239-15
 C2H6            2.760-16
 C2O             4.411-10
 C3H3,2-propynl  2.296-16
 C3O2            5.398-12
 *H              1.6523-2
 HCO             1.7108-5
 HCCO            1.531-10
 HO2             4.1533-7
 *H2             3.1098-1
 HCHO,formaldehy 1.8497-6
 HCOOH           1.4703-6
 H2O             2.7134-1
 H2O2            2.4539-7
 *O              1.6105-4
 *OH             5.4152-3
 *O2             5.5364-5
 O3              4.034-12

  * THERMODYNAMIC PROPERTIES FITTED TO 20000.K


                     DETONATION PROPERTIES OF AN IDEAL REACTING GAS
 CASE =                

             REACTANT                       MOLES         ENERGY      TEMP
                                                         KJ/KG-MOL      K
 FUEL        C2H5OH                       1.0000000   -234828.916    300.000
 OXIDANT     O2                           3.0000000        54.358    300.000

 O/F=    0.86824  %FUEL= 53.526290  R,EQ.RATIO= 2.000000  PHI,EQ.RATIO= 2.400000

 UNBURNED GAS

 P1, BAR           1.0000
 T1, K             300.00
 H1, KJ/KG       -2727.66
 M1, (1/n)         38.252
 GAMMA1            1.2237
 SON VEL1,M/SEC     282.5

 BURNED GAS

 P, BAR            40.046
 T, K             2960.68
 RHO, KG/CU M    2.7774 0
 H, KJ/KG         -751.67
 U, KJ/KG        -2193.53
 G, KJ/KG        -41309.9
 S, KJ/(KG)(K)    13.6989

 M, (1/n)          17.073
 (dLV/dLP)t      -1.00413
 (dLV/dLT)p        1.0811
 Cp, KJ/(KG)(K)    3.3041
 GAMMAs            1.2021
 SON VEL,M/SEC     1316.5

 DETONATION PARAMETERS

 P/P1              40.046
 T/T1               9.869
 M/M1              0.4463
 RHO/RHO1          1.8111
 DET MACH NUMBER   8.4407
 DET VEL,M/SEC     2384.4

 MOLE FRACTIONS

 *C              1.513-10
 *CH             2.638-10
 CH2             3.1618-9
 CH3             3.9021-8
 CH2OH           1.4399-9
 CH3O            3.318-10
 CH4             6.5378-8
 CH3OH           5.314-10
 CH3OOH          1.276-15
 *CO             3.5879-1
 *CO2            3.7926-2
 COOH            1.9742-6
 *C2             1.544-14
 C2H             3.563-12
 C2H2,acetylene  5.628-10
 C2H2,vinylidene 1.619-12
 CH2CO,ketene    1.5717-9
 O(CH)2O         2.727-12
 HO(CO)2OH       3.452-14
 C2H3,vinyl      4.998-13
 CH3CO,acetyl    2.408-12
 C2H4            1.396-12
 C2H4O,ethylen-o 2.120-16
 CH3CHO,ethanal  2.780-13
 CH3COOH         3.781-14
 OHCH2COOH       9.650-16
 C2H5            2.174-15
 C2H6            6.429-16
 C2O             3.469-10
 C3H3,2-propynl  3.841-16
 C3O2            5.903-12
 *H              1.2722-2
 HCO             1.4521-5
 HCCO            1.437-10
 HO2             1.7362-7
 *H2             3.3095-1
 HCHO,formaldehy 1.9549-6
 HCOOH           1.3773-6
 H2O             2.5606-1
 H2O2            1.2751-7
 *O              7.4618-5
 *OH             3.4374-3
 *O2             2.2888-5
 O3              8.516-13

  * THERMODYNAMIC PROPERTIES FITTED TO 20000.K


                     DETONATION PROPERTIES OF AN IDEAL REACTING GAS
 CASE =                

             REACTANT                       MOLES         ENERGY      TEMP
                                                         KJ/KG-MOL      K
 FUEL        C2H5OH                       1.0000000   -234828.916    300.000
 OXIDANT     O2                           3.0000000        54.358    300.000

 O/F=    0.83351  %FUEL= 54.540164  R,EQ.RATIO= 2.058824  PHI,EQ.RATIO= 2.500000

 UNBURNED GAS

 P1, BAR           1.0000
 T1, K             300.00
 H1, KJ/KG       -2779.35
 M1, (1/n)         38.394
 GAMMA1            1.2215
 SON VEL1,M/SEC     281.7

 BURNED GAS

 P, BAR            39.326
 T, K             2860.02
 RHO, KG/CU M    2.7775 0
 H, KJ/KG         -844.44
 U, KJ/KG        -2260.33
 G, KJ/KG        -40184.7
 S, KJ/(KG)(K)    13.7552

 M, (1/n)          16.795
 (dLV/dLP)t      -1.00295
 (dLV/dLT)p        1.0593
 Cp, KJ/(KG)(K)    3.1295
 GAMMAs            1.2115
 SON VEL,M/SEC     1309.7

 DETONATION PARAMETERS

 P/P1              39.326
 T/T1               9.533
 M/M1              0.4374
 RHO/RHO1          1.8044
 DET MACH NUMBER   8.3891
 DET VEL,M/SEC     2363.3

 MOLE FRACTIONS

 *C              7.413-11
 *CH             1.570-10
 CH2             2.6013-9
 CH3             4.6398-8
 CH2OH           1.3498-9
 CH3O            2.903-10
 CH4             1.0669-7
 CH3OH           6.586-10
 CH3OOH          8.835-16
 *CO             3.6246-1
 *CO2            3.5186-2
 COOH            1.4460-6
 *C2             8.718-15
 C2H             2.964-12
 C2H2,acetylene  7.732-10
 C2H2,vinylidene 1.737-12
 CH2CO,ketene    2.0065-9
 O(CH)2O         2.693-12
 HO(CO)2OH       2.714-14
 C2H3,vinyl      6.415-13
 CH3CO,acetyl    2.937-12
 C2H4            2.585-12
 C2H4O,ethylen-o 2.801-16
 CH3CHO,ethanal  4.357-13
 CH3COOH         5.262-14
 OHCH2COOH       1.007-15
 C2H5            3.738-15
 C2H6            1.498-15
 C2O             2.609-10
 C3H3,2-propynl  6.236-16
 C3O2            6.345-12
 *H              9.5034-3
 HCO             1.2014-5
 HCCO            1.303-10
 HO2             6.8627-8
 *H2             3.4966-1
 HCHO,formaldehy 2.0422-6
 HCOOH           1.2819-6
 H2O             2.4101-1
 H2O2            6.3498-8
 *O              3.2717-5
 *OH             2.1111-3
 *O2             8.9999-6
 O3              1.638-13

  * THERMODYNAMIC PROPERTIES FITTED TO 20000.K


                     DETONATION PROPERTIES OF AN IDEAL REACTING GAS
 CASE =                

             REACTANT                       MOLES         ENERGY      TEMP
                                                         KJ/KG-MOL      K
 FUEL        C2H5OH                       1.0000000   -234828.916    300.000
 OXIDANT     O2                           3.0000000        54.358    300.000

 O/F=    0.80145  %FUEL= 55.510744  R,EQ.RATIO= 2.116279  PHI,EQ.RATIO= 2.600000

 UNBURNED GAS

 P1, BAR           1.0000
 T1, K             300.00
 H1, KJ/KG       -2828.84
 M1, (1/n)         38.531
 GAMMA1            1.2195
 SON VEL1,M/SEC     281.0

 BURNED GAS

 P, BAR            38.528
 T, K             2758.04
 RHO, KG/CU M    2.7773 0
 H, KJ/KG         -938.51
 U, KJ/KG        -2325.76
 G, KJ/KG        -39011.3
 S, KJ/(KG)(K)    13.8043

 M, (1/n)          16.530
 (dLV/dLP)t      -1.00206
 (dLV/dLT)p        1.0425
 Cp, KJ/(KG)(K)    2.9895
 GAMMAs            1.2207
 SON VEL,M/SEC     1301.3

 DETONATION PARAMETERS

 P/P1              38.528
 T/T1               9.193
 M/M1              0.4290
 RHO/RHO1          1.7979
 DET MACH NUMBER   8.3271
 DET VEL,M/SEC     2339.7

 MOLE FRACTIONS

 *C              3.356-11
 *CH             8.736-11
 CH2             2.0448-9
 CH3             5.4139-8
 CH2OH           1.2332-9
 CH3O            2.464-10
 CH4             1.7509-7
 CH3OH           8.113-10
 CH3OOH          5.863-16
 *CO             3.6552-1
 *CO2            3.2836-2
 COOH            1.0374-6
 *C2             4.526-15
 C2H             2.333-12
 C2H2,acetylene  1.0448-9
 C2H2,vinylidene 1.791-12
 CH2CO,ketene    2.5384-9
 O(CH)2O         2.615-12
 HO(CO)2OH       2.119-14
 C2H3,vinyl      7.998-13
 CH3CO,acetyl    3.517-12
 C2H4            4.777-12
 C2H4O,ethylen-o 3.639-16
 CH3CHO,ethanal  6.816-13
 CH3COOH         7.340-14
 OHCH2COOH       1.042-15
 C2H5            6.336-15
 C2H6            3.517-15
 C2O             1.878-10
 C3H3,2-propynl  9.874-16
 C3H4,propyne    1.331-16
 C3O2            6.721-12
 *H              6.8868-3
 HCO             9.6933-6
 HCCO            1.142-10
 HO2             2.5609-8
 *H2             3.6711-1
 HCHO,formaldehy 2.1123-6
 HCOOH           1.1870-6
 H2O             2.2636-1
 H2O2            3.0280-8
 *O              1.3550-5
 *OH             1.2535-3
 *O2             3.3583-6
 O3              2.863-14

  * THERMODYNAMIC PROPERTIES FITTED TO 20000.K


                     DETONATION PROPERTIES OF AN IDEAL REACTING GAS
 CASE =                

             REACTANT                       MOLES         ENERGY      TEMP
                                                         KJ/KG-MOL      K
 FUEL        C2H5OH                       1.0000000   -234828.916    300.000
 OXIDANT     O2                           3.0000000        54.358    300.000

 O/F=    0.77177  %FUEL= 56.440747  R,EQ.RATIO= 2.172414  PHI,EQ.RATIO= 2.700000

 UNBURNED GAS

 P1, BAR           1.0000
 T1, K             300.00
 H1, KJ/KG       -2876.27
 M1, (1/n)         38.663
 GAMMA1            1.2175
 SON VEL1,M/SEC     280.3

 BURNED GAS

 P, BAR            37.667
 T, K             2655.60
 RHO, KG/CU M    2.7771 0
 H, KJ/KG        -1033.32
 U, KJ/KG        -2389.66
 G, KJ/KG        -37804.4
 S, KJ/(KG)(K)    13.8466

 M, (1/n)          16.279
 (dLV/dLP)t      -1.00140
 (dLV/dLT)p        1.0298
 Cp, KJ/(KG)(K)    2.8789
 GAMMAs            1.2296
 SON VEL,M/SEC     1291.4

 DETONATION PARAMETERS

 P/P1              37.667
 T/T1               8.852
 M/M1              0.4210
 RHO/RHO1          1.7916
 DET MACH NUMBER   8.2557
 DET VEL,M/SEC     2313.8

 MOLE FRACTIONS

 *C              1.404-11
 *CH             4.546-11
 CH2             1.5380-9
 CH3             6.2152-8
 CH2OH           1.1001-9
 CH3O            2.033-10
 CH4             2.9006-7
 CH3OH           9.961-10
 CH3OOH          3.737-16
 *CO             3.6805-1
 *CO2            3.0823-2
 COOH            7.2906-7
 *C2             2.162-15
 C2H             1.742-12
 C2H2,acetylene  1.3932-9
 C2H2,vinylidene 1.781-12
 CH2CO,ketene    3.1916-9
 O(CH)2O         2.502-12
 HO(CO)2OH       1.646-14
 C2H3,vinyl      9.724-13
 CH3CO,acetyl    4.150-12
 C2H4            8.854-12
 C2H4O,ethylen-o 4.671-16
 CH3CHO,ethanal  1.069-12
 CH3COOH         1.031-13
 OHCH2COOH       1.075-15
 C2H5            1.065-14
 C2H6            8.368-15
 C2H5OH          1.475-16
 C2O             1.296-10
 C3H3,2-propynl  1.533-15
 C3H4,allene     1.209-16
 C3H4,propyne    2.676-16
 C3O2            7.032-12
 *H              4.8414-3
 HCO             7.6326-6
 HCCO            9.696-11
 HO2             9.0076-9
 *H2             3.8333-1
 HCHO,formaldehy 2.1667-6
 HCOOH           1.0950-6
 H2O             2.1221-1
 H2O2            1.3818-8
 *O              5.2927-6
 *OH             7.1898-4
 *O2             1.1867-6
 O3              4.532-15

  * THERMODYNAMIC PROPERTIES FITTED TO 20000.K


                     DETONATION PROPERTIES OF AN IDEAL REACTING GAS
 CASE =                

             REACTANT                       MOLES         ENERGY      TEMP
                                                         KJ/KG-MOL      K
 FUEL        C2H5OH                       1.0000000   -234828.916    300.000
 OXIDANT     O2                           3.0000000        54.358    300.000

 O/F=    0.74421  %FUEL= 57.332664  R,EQ.RATIO= 2.227273  PHI,EQ.RATIO= 2.800000

 UNBURNED GAS

 P1, BAR           1.0000
 T1, K             300.00
 H1, KJ/KG       -2921.75
 M1, (1/n)         38.791
 GAMMA1            1.2157
 SON VEL1,M/SEC     279.6

 BURNED GAS

 P, BAR            36.756
 T, K             2553.54
 RHO, KG/CU M    2.7770 0
 H, KJ/KG        -1128.35
 U, KJ/KG        -2451.93
 G, KJ/KG        -36577.5
 S, KJ/(KG)(K)    13.8824

 M, (1/n)          16.041
 (dLV/dLP)t      -1.00093
 (dLV/dLT)p        1.0205
 Cp, KJ/(KG)(K)    2.7932
 GAMMAs            1.2381
 SON VEL,M/SEC     1280.1

 DETONATION PARAMETERS

 P/P1              36.756
 T/T1               8.512
 M/M1              0.4135
 RHO/RHO1          1.7857
 DET MACH NUMBER   8.1760
 DET VEL,M/SEC     2285.9

 MOLE FRACTIONS

 *C              5.427-12
 *CH             2.214-11
 CH2             1.1087-9
 CH3             7.0368-8
 CH2OH           9.601-10
 CH3O            1.633-10
 CH4             4.8676-7
 CH3OH           1.2226-9
 CH3OOH          2.292-16
 *CO             3.7015-1
 *CO2            2.9102-2
 COOH            5.0208-7
 *C2             9.522-16
 C2H             1.236-12
 C2H2,acetylene  1.8388-9
 C2H2,vinylidene 1.712-12
 CH2CO,ketene    3.9987-9
 O(CH)2O         2.364-12
 HO(CO)2OH       1.273-14
 C2H3,vinyl      1.157-12
 CH3CO,acetyl    4.842-12
 C2H4            1.653-11
 C2H4O,ethylen-o 5.946-16
 CH3CHO,ethanal  1.686-12
 CH3COOH         1.462-13
 OHCH2COOH       1.107-15
 C2H5            1.782-14
 C2H6            2.030-14
 C2H5OH          2.666-16
 C2O             8.575-11
 C3H3,2-propynl  2.344-15
 C3H4,allene     2.403-16
 C3H4,propyne    5.391-16
 C3O2            7.282-12
 *H              3.3019-3
 HCO             5.8688-6
 HCCO            7.991-11
 HO2             2.9828-9
 *H2             3.9839-1
 HCHO,formaldehy 2.2071-6
 HCOOH           1.0073-6
 H2O             1.9865-1
 H2O2            6.0309-9
 *O              1.9473-6
 *OH             3.9819-4
 *O2             3.9642-7
 O3              6.483-16

  * THERMODYNAMIC PROPERTIES FITTED TO 20000.K


                     DETONATION PROPERTIES OF AN IDEAL REACTING GAS
 CASE =                

             REACTANT                       MOLES         ENERGY      TEMP
                                                         KJ/KG-MOL      K
 FUEL        C2H5OH                       1.0000000   -234828.916    300.000
 OXIDANT     O2                           3.0000000        54.358    300.000

 O/F=    0.71854  %FUEL= 58.188788  R,EQ.RATIO= 2.280899  PHI,EQ.RATIO= 2.900000

 UNBURNED GAS

 P1, BAR           1.0000
 T1, K             300.00
 H1, KJ/KG       -2965.40
 M1, (1/n)         38.914
 GAMMA1            1.2139
 SON VEL1,M/SEC     278.9

 BURNED GAS

 P, BAR            35.809
 T, K             2452.56
 RHO, KG/CU M    2.7772 0
 H, KJ/KG        -1223.11
 U, KJ/KG        -2512.49
 G, KJ/KG        -35343.2
 S, KJ/(KG)(K)    13.9120

 M, (1/n)          15.815
 (dLV/dLP)t      -1.00061
 (dLV/dLT)p        1.0137
 Cp, KJ/(KG)(K)    2.7283
 GAMMAs            1.2460
 SON VEL,M/SEC     1267.5

 DETONATION PARAMETERS

 P/P1              35.809
 T/T1               8.175
 M/M1              0.4064
 RHO/RHO1          1.7802
 DET MACH NUMBER   8.0889
 DET VEL,M/SEC     2256.3

 MOLE FRACTIONS

 *C              1.939-12
 *CH             1.010-11
 CH2             7.671-10
 CH3             7.8749-8
 CH2OH           8.210-10
 CH3O            1.280-10
 CH4             8.2998-7
 CH3OH           1.5033-9
 CH3OOH          1.355-16
 *CO             3.7188-1
 *CO2            2.7634-2
 COOH            3.3889-7
 *C2             3.870-16
 C2H             8.352-13
 C2H2,acetylene  2.4096-9
 C2H2,vinylidene 1.595-12
 CH2CO,ketene    5.0047-9
 O(CH)2O         2.211-12
 HO(CO)2OH       9.818-15
 C2H3,vinyl      1.352-12
 CH3CO,acetyl    5.601-12
 C2H4            3.122-11
 C2H4O,ethylen-o 7.533-16
 CH3CHO,ethanal  2.686-12
 CH3COOH         2.101-13
 OHCH2COOH       1.143-15
 C2H5            2.984-14
 C2H6            5.047-14
 C2H5OH          4.885-16
 C2O             5.451-11
 C3H3,2-propynl  3.548-15
 C3H4,allene     4.803-16
 C3H4,propyne    1.093-15
 C3O2            7.481-12
 *H              2.1851-3
 HCO             4.4093-6
 HCCO            6.403-11
 HO2             9.288-10
 *H2             4.1239-1
 HCHO,formaldehy 2.2355-6
 HCOOH           9.2501-7
 H2O             1.8569-1
 H2O2            2.5163-9
 *O              6.7415-7
 *OH             2.1281-4
 *O2             1.2498-7

  * THERMODYNAMIC PROPERTIES FITTED TO 20000.K


                     DETONATION PROPERTIES OF AN IDEAL REACTING GAS
 CASE =                

             REACTANT                       MOLES         ENERGY      TEMP
                                                         KJ/KG-MOL      K
 FUEL        C2H5OH                       1.0000000   -234828.916    300.000
 OXIDANT     O2                           3.0000000        54.358    300.000

 O/F=    0.69459  %FUEL= 59.011232  R,EQ.RATIO= 2.333333  PHI,EQ.RATIO= 3.000000

 UNBURNED GAS

 P1, BAR           1.0000
 T1, K             300.00
 H1, KJ/KG       -3007.34
 M1, (1/n)         39.034
 GAMMA1            1.2122
 SON VEL1,M/SEC     278.3

 BURNED GAS

 P, BAR            34.836
 T, K             2353.28
 RHO, KG/CU M    2.7777 0
 H, KJ/KG        -1317.18
 U, KJ/KG        -2571.29
 G, KJ/KG        -34112.0
 S, KJ/(KG)(K)    13.9358

 M, (1/n)          15.602
 (dLV/dLP)t      -1.00039
 (dLV/dLT)p        1.0090
 Cp, KJ/(KG)(K)    2.6802
 GAMMAs            1.2532
 SON VEL,M/SEC     1253.7

 DETONATION PARAMETERS

 P/P1              34.836
 T/T1               7.844
 M/M1              0.3997
 RHO/RHO1          1.7750
 DET MACH NUMBER   7.9953
 DET VEL,M/SEC     2225.3

 MOLE FRACTIONS

 *C              6.410-13
 *CH             4.324-12
 CH2             5.101-10
 CH3             8.7280-8
 CH2OH           6.889-10
 CH3O            9.803-11
 CH4             1.4420-6
 CH3OH           1.8558-9
 *CO             3.7331-1
 *CO2            2.6384-2
 COOH            2.2421-7
 *C2             1.453-16
 C2H             5.387-13
 C2H2,acetylene  3.1428-9
 C2H2,vinylidene 1.444-12
 CH2CO,ketene    6.2704-9
 O(CH)2O         2.049-12
 HO(CO)2OH       7.555-15
 C2H3,vinyl      1.555-12
 CH3CO,acetyl    6.443-12
 C2H4            5.986-11
 C2H4O,ethylen-o 9.529-16
 CH3CHO,ethanal  4.335-12
 CH3COOH         3.069-13
 OHCH2COOH       1.185-15
 C2H5            5.020-14
 C2H6            1.292-13
 C2H5OH          9.115-16
 C2O             3.332-11
 C3H3,2-propynl  5.336-15
 C3H4,allene     9.703-16
 C3H4,propyne    2.242-15
 C3O2            7.636-12
 *H              1.4033-3
 HCO             3.2384-6
 HCCO            4.995-11
 HO2             2.716-10
 *H2             4.2543-1
 HCHO,formaldehy 2.2540-6
 HCOOH           8.4863-7
 H2O             1.7336-1
 H2O2            1.0030-9
 *O              2.1936-7
 *OH             1.0970-4
 *O2             3.7126-8

  * THERMODYNAMIC PROPERTIES FITTED TO 20000.K


                     DETONATION PROPERTIES OF AN IDEAL REACTING GAS
 CASE =                

             REACTANT                       MOLES         ENERGY      TEMP
                                                         KJ/KG-MOL      K
 FUEL        C2H5OH                       1.0000000   -234828.916    300.000
 OXIDANT     O2                           3.0000000        54.358    300.000

 O/F=    0.67219  %FUEL= 59.801944  R,EQ.RATIO= 2.384615  PHI,EQ.RATIO= 3.100000

 UNBURNED GAS

 P1, BAR           1.0000
 T1, K             300.00
 H1, KJ/KG       -3047.66
 M1, (1/n)         39.149
 GAMMA1            1.2106
 SON VEL1,M/SEC     277.7

 BURNED GAS

 P, BAR            33.846
 T, K             2256.14
 RHO, KG/CU M    2.7786 0
 H, KJ/KG        -1410.23
 U, KJ/KG        -2628.33
 G, KJ/KG        -32892.5
 S, KJ/(KG)(K)    13.9540

 M, (1/n)          15.400
 (dLV/dLP)t      -1.00025
 (dLV/dLT)p        1.0058
 Cp, KJ/(KG)(K)    2.6455
 GAMMAs            1.2598
 SON VEL,M/SEC     1238.8

 DETONATION PARAMETERS

 P/P1              33.846
 T/T1               7.520
 M/M1              0.3934
 RHO/RHO1          1.7703
 DET MACH NUMBER   7.8962
 DET VEL,M/SEC     2193.0

 MOLE FRACTIONS

 *C              1.958-13
 *CH             1.735-12
 CH2             3.264-10
 CH3             9.5969-8
 CH2OH           5.678-10
 CH3O            7.344-11
 CH4             2.5592-6
 CH3OH           2.3043-9
 *CO             3.7448-1
 *CO2            2.5326-2
 COOH            1.4539-7
 C2H             3.320-13
 C2H2,acetylene  4.0900-9
 C2H2,vinylidene 1.273-12
 CH2CO,ketene    7.8802-9
 O(CH)2O         1.885-12
 HO(CO)2OH       5.806-15
 C2H3,vinyl      1.767-12
 CH3CO,acetyl    7.385-12
 C2H4            1.169-10
 C2H4O,ethylen-o 1.207-15
 CH3CHO,ethanal  7.111-12
 CH3COOH         4.569-13
 OHCH2COOH       1.236-15
 C2H5            8.515-14
 C2H6            3.421-13
 C2H5OH          1.739-15
 C2O             1.959-11
 C3H3,2-propynl  8.001-15
 C3H4,allene     1.989-15
 C3H4,propyne    4.672-15
 C3H6,propylene  1.278-16
 C3O2            7.758-12
 *H              8.7444-4
 HCO             2.3258-6
 HCCO            3.799-11
 HO2             7.450-11
 *H2             4.3762-1
 HCHO,formaldehy 2.2644-6
 HCOOH           7.7832-7
 H2O             1.6163-1
 H2O2            3.815-10
 *O              6.6996-8
 *OH             5.4494-5
 *O2             1.0372-8

  * THERMODYNAMIC PROPERTIES FITTED TO 20000.K


                     DETONATION PROPERTIES OF AN IDEAL REACTING GAS
 CASE =                

             REACTANT                       MOLES         ENERGY      TEMP
                                                         KJ/KG-MOL      K
 FUEL        C2H5OH                       1.0000000   -234828.916    300.000
 OXIDANT     O2                           3.0000000        54.358    300.000

 O/F=    0.65118  %FUEL= 60.562727  R,EQ.RATIO= 2.434783  PHI,EQ.RATIO= 3.200000

 UNBURNED GAS

 P1, BAR           1.0000
 T1, K             300.00
 H1, KJ/KG       -3086.45
 M1, (1/n)         39.261
 GAMMA1            1.2091
 SON VEL1,M/SEC     277.2

 BURNED GAS

 P, BAR            32.844
 T, K             2161.47
 RHO, KG/CU M    2.7796 0
 H, KJ/KG        -1502.05
 U, KJ/KG        -2683.65
 G, KJ/KG        -31691.1
 S, KJ/(KG)(K)    13.9669

 M, (1/n)          15.209
 (dLV/dLP)t      -1.00016
 (dLV/dLT)p        1.0037
 Cp, KJ/(KG)(K)    2.6209
 GAMMAs            1.2657
 SON VEL,M/SEC     1222.9

 DETONATION PARAMETERS

 P/P1              32.844
 T/T1               7.205
 M/M1              0.3874
 RHO/RHO1          1.7660
 DET MACH NUMBER   7.7922
 DET VEL,M/SEC     2159.7

 MOLE FRACTIONS

 *C              5.525-14
 *CH             6.528-13
 CH2             2.009-10
 CH3             1.0484-7
 CH2OH           4.600-10
 CH3O            5.386-11
 CH4             4.6513-6
 CH3OH           2.8825-9
 *CO             3.7545-1
 *CO2            2.4437-2
 COOH            9.2357-8
 C2H             1.957-13
 C2H2,acetylene  5.3218-9
 C2H2,vinylidene 1.094-12
 CH2CO,ketene    9.9508-9
 O(CH)2O         1.723-12
 HO(CO)2OH       4.457-15
 C2H3,vinyl      1.985-12
 CH3CO,acetyl    8.452-12
 C2H4            2.334-10
 C2H4O,ethylen-o 1.534-15
 CH3CHO,ethanal  1.188-11
 CH3COOH         6.951-13
 OHCH2COOH       1.300-15
 C2H5            1.461-13
 C2H6            9.411-13
 C2H5OH          3.402-15
 C2O             1.108-11
 C3H3,2-propynl  1.200-14
 C3H4,allene     4.156-15
 C3H4,propyne    9.928-15
 C3H5,allyl      1.292-16
 C3H6,propylene  4.010-16
 C3O2            7.855-12
 *H              5.2849-4
 HCO             1.6332-6
 HCCO            2.819-11
 HO2             1.912-11
 *H2             4.4906-1
 HCHO,formaldehy 2.2683-6
 HCOOH           7.1399-7
 H2O             1.5050-1
 H2O2            1.383-10
 *O              1.9166-8
 *OH             2.6058-5
 *O2             2.7181-9

  * THERMODYNAMIC PROPERTIES FITTED TO 20000.K


                     DETONATION PROPERTIES OF AN IDEAL REACTING GAS
 CASE =                

             REACTANT                       MOLES         ENERGY      TEMP
                                                         KJ/KG-MOL      K
 FUEL        C2H5OH                       1.0000000   -234828.916    300.000
 OXIDANT     O2                           3.0000000        54.358    300.000

 O/F=    0.63145  %FUEL= 61.295247  R,EQ.RATIO= 2.483871  PHI,EQ.RATIO= 3.300000

 UNBURNED GAS

 P1, BAR           1.0000
 T1, K             300.00
 H1, KJ/KG       -3123.80
 M1, (1/n)         39.369
 GAMMA1            1.2077
 SON VEL1,M/SEC     276.6

 BURNED GAS

 P, BAR            31.837
 T, K             2069.47
 RHO, KG/CU M    2.7809 0
 H, KJ/KG        -1592.45
 U, KJ/KG        -2737.30
 G, KJ/KG        -30512.4
 S, KJ/(KG)(K)    13.9746

 M, (1/n)          15.030
 (dLV/dLP)t      -1.00012
 (dLV/dLT)p        1.0024
 Cp, KJ/(KG)(K)    2.6040
 GAMMAs            1.2712
 SON VEL,M/SEC     1206.4

 DETONATION PARAMETERS

 P/P1              31.837
 T/T1               6.898
 M/M1              0.3818
 RHO/RHO1          1.7620
 DET MACH NUMBER   7.6841
 DET VEL,M/SEC     2125.6

 MOLE FRACTIONS

 *C              1.436-14
 *CH             2.299-13
 CH2             1.191-10
 CH3             1.1392-7
 CH2OH           3.665-10
 CH3O            3.869-11
 CH4             8.6792-6
 CH3OH           3.6384-9
 *CO             3.7623-1
 *CO2            2.3698-2
 COOH            5.7436-8
 C2H             1.104-13
 C2H2,acetylene  6.9371-9
 C2H2,vinylidene 9.177-13
 CH2CO,ketene    1.2647-8
 O(CH)2O         1.567-12
 HO(CO)2OH       3.419-15
 C2H3,vinyl      2.212-12
 CH3CO,acetyl    9.677-12
 C2H4            4.777-10
 C2H4O,ethylen-o 1.962-15
 CH3CHO,ethanal  2.029-11
 CH3COOH         1.083-12
 OHCH2COOH       1.381-15
 C2H5            2.545-13
 C2H6            2.701-12
 C2H5OH          6.852-15
 C2O             6.032-12
 C3H3,2-propynl  1.807-14
 C3H4,allene     8.884-15
 C3H4,propyne    2.161-14
 C3H5,allyl      2.923-16
 C3H6,propylene  1.317-15
 C3O2            7.934-12
 *H              3.0955-4
 HCO             1.1210-6
 HCCO            2.042-11
 HO2             4.575-12
 *H2             4.5982-1
 HCHO,formaldehy 2.2671-6
 HCOOH           6.5539-7
 H2O             1.3991-1
 H2O2            4.767-11
 *O              5.1215-9
 *OH             1.1974-5
 *O2             6.660-10

  * THERMODYNAMIC PROPERTIES FITTED TO 20000.K


                     DETONATION PROPERTIES OF AN IDEAL REACTING GAS
 CASE =                

             REACTANT                       MOLES         ENERGY      TEMP
                                                         KJ/KG-MOL      K
 FUEL        C2H5OH                       1.0000000   -234828.916    300.000
 OXIDANT     O2                           3.0000000        54.358    300.000

 O/F=    0.61288  %FUEL= 62.001052  R,EQ.RATIO= 2.531915  PHI,EQ.RATIO= 3.400000

 UNBURNED GAS

 P1, BAR           1.0000
 T1, K             300.00
 H1, KJ/KG       -3159.79
 M1, (1/n)         39.473
 GAMMA1            1.2063
 SON VEL1,M/SEC     276.1

 BURNED GAS

 P, BAR            30.828
 T, K             1980.22
 RHO, KG/CU M    2.7823 0
 H, KJ/KG        -1681.34
 U, KJ/KG        -2789.34
 G, KJ/KG        -29359.8
 S, KJ/(KG)(K)    13.9774

 M, (1/n)          14.860
 (dLV/dLP)t      -1.00012
 (dLV/dLT)p        1.0017
 Cp, KJ/(KG)(K)    2.5929
 GAMMAs            1.2762
 SON VEL,M/SEC     1189.1

 DETONATION PARAMETERS

 P/P1              30.828
 T/T1               6.601
 M/M1              0.3765
 RHO/RHO1          1.7582
 DET MACH NUMBER   7.5724
 DET VEL,M/SEC     2090.7

 MOLE FRACTIONS

 *C              3.430-15
 *CH             7.564-14
 CH2             6.783-11
 CH3             1.2327-7
 CH2OH           2.872-10
 CH3O            2.721-11
 CH4             1.6671-5
 CH3OH           4.6406-9
 *CO             3.7686-1
 *CO2            2.3095-2
 COOH            3.4932-8
 C2H             5.953-14
 C2H2,acetylene  9.0749-9
 C2H2,vinylidene 7.518-13
 CH2CO,ketene    1.6202-8
 O(CH)2O         1.418-12
 HO(CO)2OH       2.620-15
 C2H3,vinyl      2.446-12
 CH3CO,acetyl    1.110-11
 C2H4            1.0060-9
 C2H4O,ethylen-o 2.530-15
 CH3CHO,ethanal  3.548-11
 CH3COOH         1.732-12
 OHCH2COOH       1.484-15
 C2H5            4.513-13
 C2H6            8.124-12
 C2H5OH          1.426-14
 CH3OCH3         1.065-16
 C2O             3.154-12
 C3H3,2-propynl  2.738-14
 C3H4,allene     1.950-14
 C3H4,propyne    4.834-14
 C3H5,allyl      6.813-16
 C3H6,propylene  4.550-15
 C3O2            8.004-12
 *H              1.7550-4
 HCO             7.5160-7
 HCCO            1.443-11
 HO2             1.017-12
 *H2             4.6999-1
 HCHO,formaldehy 2.2619-6
 HCOOH           6.0216-7
 H2O             1.2985-1
 H2O2            1.558-11
 *O              1.2738-9
 *OH             5.2769-6
 *O2             1.520-10

  * THERMODYNAMIC PROPERTIES FITTED TO 20000.K


                     DETONATION PROPERTIES OF AN IDEAL REACTING GAS
 CASE =                

             REACTANT                       MOLES         ENERGY      TEMP
                                                         KJ/KG-MOL      K
 FUEL        C2H5OH                       1.0000000   -234828.916    300.000
 OXIDANT     O2                           3.0000000        54.358    300.000

 O/F=    0.59537  %FUEL= 62.681576  R,EQ.RATIO= 2.578947  PHI,EQ.RATIO= 3.500000

 UNBURNED GAS

 P1, BAR           1.0000
 T1, K             300.00
 H1, KJ/KG       -3194.49
 M1, (1/n)         39.575
 GAMMA1            1.2050
 SON VEL1,M/SEC     275.6

 BURNED GAS

 P, BAR            29.819
 T, K             1893.79
 RHO, KG/CU M    2.7838 0
 H, KJ/KG        -1768.64
 U, KJ/KG        -2839.82
 G, KJ/KG        -28235.2
 S, KJ/(KG)(K)    13.9755

 M, (1/n)          14.699
 (dLV/dLP)t      -1.00016
 (dLV/dLT)p        1.0017
 Cp, KJ/(KG)(K)    2.5867
 GAMMAs            1.2808
 SON VEL,M/SEC     1171.3

 DETONATION PARAMETERS

 P/P1              29.819
 T/T1               6.313
 M/M1              0.3714
 RHO/RHO1          1.7546
 DET MACH NUMBER   7.4575
 DET VEL,M/SEC     2055.2

 MOLE FRACTIONS

 *C              7.496-16
 *CH             2.318-14
 CH2             3.712-11
 CH3             1.3293-7
 CH2OH           2.213-10
 CH3O            1.874-11
 CH4             3.3054-5
 CH3OH           5.9894-9
 *CO             3.7735-1
 *CO2            2.2619-2
 COOH            2.0750-8
 C2H             3.066-14
 C2H2,acetylene  1.1934-8
 C2H2,vinylidene 6.016-13
 CH2CO,ketene    2.0955-8
 O(CH)2O         1.277-12
 HO(CO)2OH       2.005-15
 C2H3,vinyl      2.689-12
 CH3CO,acetyl    1.277-11
 C2H4            2.1867-9
 C2H4O,ethylen-o 3.294-15
 CH3CHO,ethanal  6.375-11
 CH3COOH         2.853-12
 OHCH2COOH       1.615-15
 C2H5            8.173-13
 C2H6            2.574-11
 C2H5OH          3.077-14
 CH3OCH3         2.005-16
 C2O             1.582-12
 C3H3,2-propynl  4.185-14
 C3H4,allene     4.415-14
 C3H4,propyne    1.116-13
 C3H4,cyclo-     1.436-16
 C3H5,allyl      1.643-15
 C3H6,propylene  1.663-14
 C3H6O,acetone   1.962-16
 C3H6O,propanal  1.140-16
 C3O2            8.070-12
 C4H2,butadiyne  1.175-16
 *H              9.6166-5
 HCO             4.9173-7
 HCCO            9.946-12
 HO2             2.091-13
 *H2             4.7962-1
 HCHO,formaldehy 2.2535-6
 HCOOH           5.5392-7
 H2O             1.2027-1
 H2O2            4.811-12
 *O              2.936-10
 *OH             2.2245-6
 *O2             3.215-11

  * THERMODYNAMIC PROPERTIES FITTED TO 20000.K


                     DETONATION PROPERTIES OF AN IDEAL REACTING GAS
 CASE =                

             REACTANT                       MOLES         ENERGY      TEMP
                                                         KJ/KG-MOL      K
 FUEL        C2H5OH                       1.0000000   -234828.916    300.000
 OXIDANT     O2                           3.0000000        54.358    300.000

 O/F=    0.57883  %FUEL= 63.338153  R,EQ.RATIO= 2.625000  PHI,EQ.RATIO= 3.600000

 UNBURNED GAS

 P1, BAR           1.0000
 T1, K             300.00
 H1, KJ/KG       -3227.97
 M1, (1/n)         39.673
 GAMMA1            1.2037
 SON VEL1,M/SEC     275.1

 BURNED GAS

 P, BAR            28.815
 T, K             1810.20
 RHO, KG/CU M    2.7853 0
 H, KJ/KG        -1854.27
 U, KJ/KG        -2888.80
 G, KJ/KG        -27140.8
 S, KJ/(KG)(K)    13.9689

 M, (1/n)          14.548
 (dLV/dLP)t      -1.00029
 (dLV/dLT)p        1.0024
 Cp, KJ/(KG)(K)    2.5857
 GAMMAs            1.2850
 SON VEL,M/SEC     1153.0

 DETONATION PARAMETERS

 P/P1              28.815
 T/T1               6.034
 M/M1              0.3667
 RHO/RHO1          1.7512
 DET MACH NUMBER   7.3396
 DET VEL,M/SEC     2019.1

 MOLE FRACTIONS

 *C              1.493-16
 *CH             6.598-15
 CH2             1.948-11
 CH3             1.4296-7
 CH2OH           1.676-10
 CH3O            1.263-11
 CH4             6.7815-5
 CH3OH           7.8322-9
 *CO             3.7771-1
 *CO2            2.2261-2
 COOH            1.2024-8
 C2H             1.507-14
 C2H2,acetylene  1.5798-8
 C2H2,vinylidene 4.702-13
 CH2CO,ketene    2.7398-8
 O(CH)2O         1.146-12
 HO(CO)2OH       1.534-15
 C2H3,vinyl      2.942-12
 CH3CO,acetyl    1.477-11
 C2H4            4.9217-9
 C2H4O,ethylen-o 4.339-15
 CH3CHO,ethanal  1.180-10
 CH3COOH         4.848-12
 OHCH2COOH       1.781-15
 C2H5            1.515-12
 C2H6            8.625-11
 C2H5OH          6.908-14
 CH3OCH3         3.899-16
 C2O             7.606-13
 C3H3,2-propynl  6.469-14
 C3H4,allene     1.034-13
 C3H4,propyne    2.669-13
 C3H4,cyclo-     2.619-16
 C3H5,allyl      4.117-15
 C3H6,propylene  6.462-14
 C3H6,cyclo-     1.838-16
 C3H6O,acetone   6.651-16
 C3H6O,propanal  3.460-16
 C3H8            2.882-16
 C3O2            8.138-12
 C4H2,butadiyne  2.006-16
 *H              5.0851-5
 HCO             3.1364-7
 HCCO            6.685-12
 HO2             3.958-14
 *H2             4.8875-1
 HCHO,formaldehy 2.2427-6
 HCOOH           5.1031-7
 H2O             1.1115-1
 H2O2            1.400-12
 *O              6.248-11
 *OH             8.9483-7
 *O2             6.275-12

  * THERMODYNAMIC PROPERTIES FITTED TO 20000.K



