
 *******************************************************************************

         NASA-GLENN CHEMICAL EQUILIBRIUM PROGRAM CEA2, MAY 21, 2004
                   BY  BONNIE MCBRIDE AND SANFORD GORDON
      REFS: NASA RP-1311, PART I, 1994 AND NASA RP-1311, PART II, 1996

 *******************************************************************************



 problem    phi,eq.ratio=3.7,3.8,3.9,4,
       det   t,k=300,  p,bar=1,
 react
   fuel=C2H5OH moles=1 t,k=300
   oxid=O2 moles=3 t,k=300
   oxid=N2 moles=11.2857 t,k=300
 output
      trace=1e-16 siunits short
 end


                     DETONATION PROPERTIES OF AN IDEAL REACTING GAS
 CASE =                

             REACTANT                       MOLES         ENERGY      TEMP
                                                         KJ/KG-MOL      K
 FUEL        C2H5OH                       1.0000000   -234828.916    300.000
 OXIDANT     O2                           3.0000000        54.358    300.000
 OXIDANT     N2                          11.2857000        53.881    300.000

 O/F=    2.41795  %FUEL= 29.257311  R,EQ.RATIO= 2.670103  PHI,EQ.RATIO= 3.700000

 UNBURNED GAS

 P1, BAR           1.0000
 T1, K             300.00
 H1, KJ/KG       -1490.04
 M1, (1/n)         32.392
 GAMMA1            1.2932
 SON VEL1,M/SEC     315.6

 BURNED GAS

 P, BAR            12.192
 T, K             1291.94
 RHO, KG/CU M    2.2273 0
 H, KJ/KG         -807.87
 U, KJ/KG        -1355.28
 G, KJ/KG        -14650.0
 S, KJ/(KG)(K)    10.7142

 M, (1/n)          19.623
 (dLV/dLP)t      -1.00595
 (dLV/dLT)p        1.0645
 Cp, KJ/(KG)(K)    2.1154
 GAMMAs            1.2837
 SON VEL,M/SEC      838.3

 DETONATION PARAMETERS

 P/P1              12.192
 T/T1               4.306
 M/M1              0.6058
 RHO/RHO1          1.7151
 DET MACH NUMBER   4.5561
 DET VEL,M/SEC     1437.7

 MOLE FRACTIONS

 CH2             5.395-15
 CH3             1.5186-8
 CH2OH           1.428-12
 CH3O            3.970-14
 CH4             1.5322-3
 CH3OH           5.5149-9
 *CN             9.980-15
 *CO             2.2463-1
 *CO2            2.3069-2
 COOH            5.674-11
 C2H2,acetylene  3.6939-9
 C2H2,vinylidene 8.747-16
 CH2CO,ketene    1.1120-8
 O(CH)2O         3.085-14
 C2H3,vinyl      6.709-14
 CH3CN           1.1298-8
 CH3CO,acetyl    1.141-12
 C2H4            4.5771-8
 C2H4O,ethylen-o 6.300-16
 CH3CHO,ethanal  3.655-10
 CH3COOH         1.454-11
 OHCH2COOH       2.134-16
 C2H5            1.365-12
 C2H6            9.7200-9
 C2H5OH          4.027-13
 CH3OCH3         6.158-16
 OCCN            8.927-16
 C2N2            5.362-13
 C2O             1.086-16
 C3H3,2-propynl  6.370-15
 C3H4,allene     2.575-13
 C3H4,propyne    7.985-13
 C3H5,allyl      1.101-14
 C3H6,propylene  5.184-12
 C3H6,cyclo-     5.845-15
 C3H6O,acetone   3.028-14
 C3H6O,propanal  5.852-15
 C3H8            1.960-13
 C3O2            3.601-13
 C4H6,butadiene  9.146-16
 *H              1.5631-7
 HCN             1.2078-5
 HCO             1.7593-9
 HCCO            1.126-14
 HNC             7.7583-8
 HNCO            6.5476-7
 HNO             1.144-15
 *H2             3.1460-1
 HCHO,formaldehy 4.1168-7
 HCOOH           9.7574-8
 H2O             5.5944-2
 NCO             5.626-14
 *NH             1.410-14
 NH2             1.844-10
 NH3             1.7068-4
 NH2OH           3.111-15
 *NO             2.175-12
 *N2             3.8004-1
 N2H2            4.489-15
 N2H4            8.304-16
 N2O             3.517-16
 *O              1.673-16
 *OH             4.237-10

  * THERMODYNAMIC PROPERTIES FITTED TO 20000.K


                     DETONATION PROPERTIES OF AN IDEAL REACTING GAS
 CASE =                

             REACTANT                       MOLES         ENERGY      TEMP
                                                         KJ/KG-MOL      K
 FUEL        C2H5OH                       1.0000000   -234828.916    300.000
 OXIDANT     O2                           3.0000000        54.358    300.000
 OXIDANT     N2                          11.2857000        53.881    300.000

 O/F=    2.35432  %FUEL= 29.812312  R,EQ.RATIO= 2.714286  PHI,EQ.RATIO= 3.800000

 UNBURNED GAS

 P1, BAR           1.0000
 T1, K             300.00
 H1, KJ/KG       -1518.34
 M1, (1/n)         32.468
 GAMMA1            1.2916
 SON VEL1,M/SEC     315.0

 BURNED GAS

 P, BAR            12.034
 T, K             1259.27
 RHO, KG/CU M    2.2419 0
 H, KJ/KG         -848.39
 U, KJ/KG        -1385.18
 G, KJ/KG        -14355.2
 S, KJ/(KG)(K)    10.7259

 M, (1/n)          19.505
 (dLV/dLP)t      -1.01058
 (dLV/dLT)p        1.1186
 Cp, KJ/(KG)(K)    2.3944
 GAMMAs            1.2694
 SON VEL,M/SEC      825.5

 DETONATION PARAMETERS

 P/P1              12.034
 T/T1               4.198
 M/M1              0.6008
 RHO/RHO1          1.7223
 DET MACH NUMBER   4.5134
 DET VEL,M/SEC     1421.7

 MOLE FRACTIONS

 CH2             3.227-15
 CH3             1.6556-8
 CH2OH           1.176-12
 CH3O            3.001-14
 CH4             2.8948-3
 CH3OH           7.2113-9
 *CN             5.173-15
 *CO             2.2627-1
 *CO2            2.3272-2
 COOH            3.731-11
 C2H2,acetylene  4.8500-9
 C2H2,vinylidene 7.390-16
 CH2CO,ketene    1.4576-8
 O(CH)2O         3.013-14
 C2H3,vinyl      7.570-14
 CH3CN           2.2028-8
 CH3CO,acetyl    1.371-12
 C2H4            9.4803-8
 C2H4O,ethylen-o 8.524-16
 CH3CHO,ethanal  6.515-10
 CH3COOH         2.467-11
 OHCH2COOH       2.577-16
 C2H5            2.431-12
 C2H6            2.8551-8
 C2H5OH          8.599-13
 CH3OCH3         1.168-15
 OCCN            6.042-16
 C2N2            5.507-13
 C3H3,2-propynl  9.780-15
 C3H4,allene     5.640-13
 C3H4,propyne    1.777-12
 C3H4,cyclo-     1.203-16
 C3H5,allyl      2.586-14
 C3H6,propylene  1.758-11
 C3H6,cyclo-     1.827-14
 C3H6O,acetone   9.272-14
 C3H6O,propanal  1.640-14
 C3H8            9.132-13
 C3O2            3.870-13
 C4H6,butadiene  3.638-15
 C4H6,2butyne    1.098-16
 C4H8,1-butene   5.269-16
 C4H8,cis2-buten 3.081-16
 C4H8,tr2-butene 3.485-16
 C4H8,isobutene  4.624-16
 *H              9.2420-8
 HCN             1.3135-5
 HCO             1.2349-9
 HCCO            8.440-15
 HNC             7.2519-8
 HNCO            6.6461-7
 HNO             4.585-16
 *H2             3.1987-1
 HCHO,formaldehy 4.2170-7
 HCOOH           9.5823-8
 H2O             5.2714-2
 NCO             3.083-14
 *NH             5.963-15
 NH2             1.186-10
 NH3             1.9640-4
 NH2OH           1.816-15
 *NO             8.845-13
 *N2             3.7477-1
 N2H2            2.705-15
 N2H4            6.716-16
 N2O             1.435-16
 *OH             2.000-10

  * THERMODYNAMIC PROPERTIES FITTED TO 20000.K


                     DETONATION PROPERTIES OF AN IDEAL REACTING GAS
 CASE =                

             REACTANT                       MOLES         ENERGY      TEMP
                                                         KJ/KG-MOL      K
 FUEL        C2H5OH                       1.0000000   -234828.916    300.000
 OXIDANT     O2                           3.0000000        54.358    300.000
 OXIDANT     N2                          11.2857000        53.881    300.000

 O/F=    2.29395  %FUEL= 30.358672  R,EQ.RATIO= 2.757576  PHI,EQ.RATIO= 3.900000

 UNBURNED GAS

 P1, BAR           1.0000
 T1, K             300.00
 H1, KJ/KG       -1546.20
 M1, (1/n)         32.543
 GAMMA1            1.2900
 SON VEL1,M/SEC     314.4

 BURNED GAS

 P, BAR            11.927
 T, K             1233.33
 RHO, KG/CU M    2.2583 0
 H, KJ/KG         -885.49
 U, KJ/KG        -1413.64
 G, KJ/KG        -14127.2
 S, KJ/(KG)(K)    10.7365

 M, (1/n)          19.416
 (dLV/dLP)t      -1.01658
 (dLV/dLT)p        1.1907
 Cp, KJ/(KG)(K)    2.7758
 GAMMAs            1.2534
 SON VEL,M/SEC      813.6

 DETONATION PARAMETERS

 P/P1              11.927
 T/T1               4.111
 M/M1              0.5966
 RHO/RHO1          1.7309
 DET MACH NUMBER   4.4788
 DET VEL,M/SEC     1408.3

 MOLE FRACTIONS

 CH2             2.092-15
 CH3             1.7678-8
 CH2OH           9.990-13
 CH3O            2.375-14
 CH4             4.8831-3
 CH3OH           8.9962-9
 *CN             2.981-15
 *CO             2.2746-1
 *CO2            2.3538-2
 COOH            2.643-11
 C2H2,acetylene  6.0290-9
 C2H2,vinylidene 6.364-16
 CH2CO,ketene    1.8177-8
 O(CH)2O         2.956-14
 C2H3,vinyl      8.292-14
 CH3CN           3.8059-8
 CH3CO,acetyl    1.590-12
 C2H4            1.7207-7
 C2H4O,ethylen-o 1.091-15
 CH3CHO,ethanal  1.0484-9
 CH3COOH         3.832-11
 OHCH2COOH       3.030-16
 C2H5            3.892-12
 C2H6            6.9257-8
 C2H5OH          1.607-12
 CH3OCH3         1.979-15
 OCCN            4.353-16
 C2N2            5.592-13
 C3H3,2-propynl  1.380-14
 C3H4,allene     1.069-12
 C3H4,propyne    3.414-12
 C3H4,cyclo-     1.922-16
 C3H5,allyl      5.192-14
 C3H6,propylene  4.793-11
 C3H6,cyclo-     4.652-14
 C3H6O,acetone   2.332-13
 C3H6O,propanal  3.833-14
 C3H7,n-propyl   1.650-16
 C3H7,i-propyl   2.106-16
 C3H8            3.240-12
 C3H8O,2propanol 1.074-16
 C3O2            4.101-13
 C4H6,butadiene  1.129-14
 C4H6,1butyne    1.697-16
 C4H6,2butyne    3.229-16
 C4H8,1-butene   2.102-15
 C4H8,cis2-buten 1.255-15
 C4H8,tr2-butene 1.421-15
 C4H8,isobutene  1.907-15
 C4H10,n-butane  1.509-16
 C6H6            4.806-16
 *H              5.9578-8
 HCN             1.4015-5
 HCO             9.190-10
 HCCO            6.616-15
 HNC             6.8226-8
 HNCO            6.7271-7
 HNO             2.150-16
 *H2             3.2349-1
 HCHO,formaldehy 4.2966-7
 HCOOH           9.4756-8
 H2O             5.0256-2
 NCO             1.870-14
 *NH             2.910-15
 NH2             8.199-11
 NH3             2.2018-4
 NH2OH           1.164-15
 *NO             4.199-13
 *N2             3.7014-1
 N2H2            1.773-15
 N2H4            5.619-16
 *OH             1.074-10

  * THERMODYNAMIC PROPERTIES FITTED TO 20000.K


                     DETONATION PROPERTIES OF AN IDEAL REACTING GAS
 CASE =                

             REACTANT                       MOLES         ENERGY      TEMP
                                                         KJ/KG-MOL      K
 FUEL        C2H5OH                       1.0000000   -234828.916    300.000
 OXIDANT     O2                           3.0000000        54.358    300.000
 OXIDANT     N2                          11.2857000        53.881    300.000

 O/F=    2.23660  %FUEL= 30.896592  R,EQ.RATIO= 2.800000  PHI,EQ.RATIO= 4.000000

 UNBURNED GAS

 P1, BAR           1.0000
 T1, K             300.00
 H1, KJ/KG       -1573.63
 M1, (1/n)         32.617
 GAMMA1            1.2884
 SON VEL1,M/SEC     313.9

 BURNED GAS

 P, BAR            11.851
 T, K             1212.96
 RHO, KG/CU M    2.2739 0
 H, KJ/KG         -920.13
 U, KJ/KG        -1441.29
 G, KJ/KG        -13955.0
 S, KJ/(KG)(K)    10.7463

 M, (1/n)          19.351
 (dLV/dLP)t      -1.02315
 (dLV/dLT)p        1.2716
 Cp, KJ/(KG)(K)    3.2154
 GAMMAs            1.2390
 SON VEL,M/SEC      803.6

 DETONATION PARAMETERS

 P/P1              11.851
 T/T1               4.043
 M/M1              0.5933
 RHO/RHO1          1.7390
 DET MACH NUMBER   4.4518
 DET VEL,M/SEC     1397.4

 MOLE FRACTIONS

 CH2             1.459-15
 CH3             1.8499-8
 CH2OH           8.721-13
 CH3O            1.957-14
 CH4             7.4145-3
 CH3OH           1.0734-8
 *CN             1.890-15
 *CO             2.2827-1
 *CO2            2.3863-2
 COOH            2.003-11
 C2H2,acetylene  7.1137-9
 C2H2,vinylidene 5.566-16
 CH2CO,ketene    2.1612-8
 O(CH)2O         2.905-14
 C2H3,vinyl      8.817-14
 CH3CN           5.8692-8
 CH3CO,acetyl    1.780-12
 C2H4            2.7603-7
 C2H4O,ethylen-o 1.323-15
 CH3CHO,ethanal  1.5325-9
 CH3COOH         5.470-11
 OHCH2COOH       3.466-16
 C2H5            5.631-12
 C2H6            1.4053-7
 C2H5OH          2.651-12
 CH3OCH3         3.011-15
 OCCN            3.314-16
 C2N2            5.604-13
 C3H3,2-propynl  1.795-14
 C3H4,allene     1.768-12
 C3H4,propyne    5.708-12
 C3H4,cyclo-     2.765-16
 C3H5,allyl      8.997-14
 C3H6,propylene  1.065-10
 C3H6,cyclo-     9.778-14
 C3H6O,acetone   4.874-13
 C3H6O,propanal  7.549-14
 C3H7,n-propyl   3.222-16
 C3H7,i-propyl   4.189-16
 C3H8            8.909-12
 C3H8O,1propanol 1.598-16
 C3H8O,2propanol 2.460-16
 C3O2            4.278-13
 C4H6,butadiene  2.776-14
 C4H6,1butyne    3.841-16
 C4H6,2butyne    7.595-16
 C4H8,1-butene   6.330-15
 C4H8,cis2-buten 3.846-15
 C4H8,tr2-butene 4.359-15
 C4H8,isobutene  5.902-15
 C4H10,n-butane  5.616-16
 C4H10,isobutane 2.487-16
 C5H6,1,3cyclo-  1.378-16
 C6H6            2.117-15
 *H              4.1588-8
 HCN             1.4681-5
 HCO             7.212-10
 HCCO            5.391-15
 HNC             6.4493-8
 HNCO            6.7843-7
 HNO             1.163-16
 *H2             3.2569-1
 HCHO,formaldehy 4.3530-7
 HCOOH           9.4201-8
 H2O             4.8458-2
 NCO             1.243-14
 *NH             1.618-15
 NH2             6.053-11
 NH3             2.4089-4
 NH2OH           8.114-16
 *NO             2.296-13
 *N2             3.6604-1
 N2H2            1.254-15
 N2H4            4.839-16
 *OH             6.489-11

  * THERMODYNAMIC PROPERTIES FITTED TO 20000.K



