
 *******************************************************************************

         NASA-GLENN CHEMICAL EQUILIBRIUM PROGRAM CEA2, MAY 21, 2004
                   BY  BONNIE MCBRIDE AND SANFORD GORDON
      REFS: NASA RP-1311, PART I, 1994 AND NASA RP-1311, PART II, 1996

 *******************************************************************************



 problem    phi,eq.ratio=0.5,0.6,0.7,0.8,0.9,1,1.1,1.2,1.3,1.4,1.5,1.6,1.7,1.8,1.
 9,2,
       det   t,k=300,  p,bar=1,
 react
   fuel=C2H5OH moles=1  t,k=300
   oxid=O2 moles=3  t,k=300
   oxid=N2 moles=11.2857  t,k=300
 output
      trace=1e-16 siunits short
 end


                     DETONATION PROPERTIES OF AN IDEAL REACTING GAS
 CASE =                

             REACTANT                       MOLES         ENERGY      TEMP
                                                         KJ/KG-MOL      K
 FUEL        C2H5OH                       1.0000000   -234828.916    300.000
 OXIDANT     O2                           3.0000000        54.358    300.000
 OXIDANT     N2                          11.2857000        53.881    300.000

 O/F=   17.89282  %FUEL=  5.293015  R,EQ.RATIO= 0.538462  PHI,EQ.RATIO= 0.500000

 UNBURNED GAS

 P1, BAR           1.0000
 T1, K             300.00
 H1, KJ/KG        -268.03
 M1, (1/n)         29.433
 GAMMA1            1.3763
 SON VEL1,M/SEC     341.5

 BURNED GAS

 P, BAR            12.289
 T, K             2053.39
 RHO, KG/CU M    2.0484 0
 H, KJ/KG          485.90
 U, KJ/KG         -114.05
 G, KJ/KG        -17291.5
 S, KJ/(KG)(K)     8.6576

 M, (1/n)          28.457
 (dLV/dLP)t      -1.00015
 (dLV/dLT)p        1.0050
 Cp, KJ/(KG)(K)    1.4828
 GAMMAs            1.2482
 SON VEL,M/SEC      865.4

 DETONATION PARAMETERS

 P/P1              12.289
 T/T1               6.845
 M/M1              0.9669
 RHO/RHO1          1.7360
 DET MACH NUMBER   4.3987
 DET VEL,M/SEC     1502.2

 MOLE FRACTIONS

 *CO             1.2315-4
 *CO2            6.5269-2
 COOH            8.293-10
 *H              4.1113-6
 HCN             6.168-15
 HCO             1.947-12
 HNC             3.429-16
 HNCO            4.470-12
 HNO             4.4123-8
 HNO2            6.2035-7
 HNO3            3.898-10
 HO2             3.6925-6
 *H2             3.8497-5
 HCHO,formaldehy 2.401-14
 HCOOH           5.784-11
 H2O             9.7401-2
 H2O2            2.3405-7
 *N              4.670-10
 NCO             2.295-13
 *NH             4.877-11
 NH2             1.799-11
 NH3             4.673-11
 NH2OH           7.610-14
 *NO             5.7384-3
 NO2             2.1568-5
 NO3             7.856-11
 *N2             7.3511-1
 N2H2            1.436-15
 N2O             1.0921-6
 N2O3            2.914-12
 N2O4            4.405-16
 N3              8.512-15
 N3H             1.309-15
 *O              8.7608-5
 *OH             1.2873-3
 *O2             9.4910-2
 O3              7.6481-9

  * THERMODYNAMIC PROPERTIES FITTED TO 20000.K


                     DETONATION PROPERTIES OF AN IDEAL REACTING GAS
 CASE =                

             REACTANT                       MOLES         ENERGY      TEMP
                                                         KJ/KG-MOL      K
 FUEL        C2H5OH                       1.0000000   -234828.916    300.000
 OXIDANT     O2                           3.0000000        54.358    300.000
 OXIDANT     N2                          11.2857000        53.881    300.000

 O/F=   14.91069  %FUEL=  6.285084  R,EQ.RATIO= 0.636364  PHI,EQ.RATIO= 0.600000

 UNBURNED GAS

 P1, BAR           1.0000
 T1, K             300.00
 H1, KJ/KG        -318.62
 M1, (1/n)         29.544
 GAMMA1            1.3723
 SON VEL1,M/SEC     340.4

 BURNED GAS

 P, BAR            13.872
 T, K             2275.71
 RHO, KG/CU M    2.0791 0
 H, KJ/KG          534.33
 U, KJ/KG         -132.89
 G, KJ/KG        -19557.2
 S, KJ/(KG)(K)     8.8287

 M, (1/n)          28.359
 (dLV/dLP)t      -1.00054
 (dLV/dLT)p        1.0160
 Cp, KJ/(KG)(K)    1.6230
 GAMMAs            1.2284
 SON VEL,M/SEC      905.3

 DETONATION PARAMETERS

 P/P1              13.872
 T/T1               7.586
 M/M1              0.9599
 RHO/RHO1          1.7554
 DET MACH NUMBER   4.6689
 DET VEL,M/SEC     1589.2

 MOLE FRACTIONS

 *CN             2.809-15
 *CO             7.5877-4
 *CO2            7.6620-2
 COOH            6.6104-9
 *H              3.2802-5
 HCN             4.387-13
 HCO             6.997-11
 HNC             3.480-14
 HNCO            6.979-11
 HNO             1.6916-7
 HNO2            8.0165-7
 HNO3            3.533-10
 HO2             7.2591-6
 *H2             2.0483-4
 HCHO,formaldehy 8.797-13
 HCOOH           4.559-10
 H2O             1.1426-1
 H2O2            4.8095-7
 *N              6.8149-9
 NCO             6.301-12
 *NH             8.617-10
 NH2             2.897-10
 NH3             4.687-10
 NH2OH           7.412-13
 *NO             8.4069-3
 NO2             2.1412-5
 NO3             9.417-11
 *N2             7.2352-1
 N2H2            2.916-14
 NH2NO2          1.084-16
 N2O             1.6720-6
 N2O3            4.132-12
 N2O4            3.984-16
 N3              1.118-13
 N3H             1.844-14
 *O              3.1148-4
 *OH             3.1711-3
 *O2             7.2689-2
 O3              1.2862-8

  * THERMODYNAMIC PROPERTIES FITTED TO 20000.K


                     DETONATION PROPERTIES OF AN IDEAL REACTING GAS
 CASE =                

             REACTANT                       MOLES         ENERGY      TEMP
                                                         KJ/KG-MOL      K
 FUEL        C2H5OH                       1.0000000   -234828.916    300.000
 OXIDANT     O2                           3.0000000        54.358    300.000
 OXIDANT     N2                          11.2857000        53.881    300.000

 O/F=   12.78059  %FUEL=  7.256584  R,EQ.RATIO= 0.731343  PHI,EQ.RATIO= 0.700000

 UNBURNED GAS

 P1, BAR           1.0000
 T1, K             300.00
 H1, KJ/KG        -368.16
 M1, (1/n)         29.655
 GAMMA1            1.3684
 SON VEL1,M/SEC     339.3

 BURNED GAS

 P, BAR            15.302
 T, K             2462.53
 RHO, KG/CU M    2.1096 0
 H, KJ/KG          572.34
 U, KJ/KG         -153.03
 G, KJ/KG        -21545.7
 S, KJ/(KG)(K)     8.9818

 M, (1/n)          28.227
 (dLV/dLP)t      -1.00149
 (dLV/dLT)p        1.0407
 Cp, KJ/(KG)(K)    1.8454
 GAMMAs            1.2068
 SON VEL,M/SEC      935.6

 DETONATION PARAMETERS

 P/P1              15.302
 T/T1               8.208
 M/M1              0.9518
 RHO/RHO1          1.7745
 DET MACH NUMBER   4.8935
 DET VEL,M/SEC     1660.2

 MOLE FRACTIONS

 CH2OH           1.320-16
 *CN             1.152-13
 *CO             2.8972-3
 *CO2            8.6026-2
 COOH            2.9802-8
 *H              1.4589-4
 HCN             1.052-11
 HCO             9.653-10
 HNC             1.069-12
 HNCO            5.410-10
 HNO             4.2501-7
 HNO2            8.7627-7
 HNO3            2.825-10
 HO2             1.0575-5
 *H2             7.1746-4
 HCHO,formaldehy 1.295-11
 HCOOH           2.1500-9
 H2O             1.2970-1
 H2O2            7.5842-7
 *N              4.4272-8
 NCO             6.917-11
 *NH             6.7026-9
 NH2             2.2173-9
 NH3             2.7037-9
 NH2OH           3.945-12
 *NO             1.0182-2
 NO2             1.8515-5
 NO3             8.721-11
 *N2             7.1173-1
 N2H2            2.664-13
 NH2NO2          3.106-16
 N2O             2.1082-6
 N2O3            4.329-12
 N2O4            2.863-16
 N3              6.816-13
 N3H             1.240-13
 *O              7.0055-4
 *OH             5.7703-3
 *O2             5.2096-2
 O3              1.5176-8

  * THERMODYNAMIC PROPERTIES FITTED TO 20000.K


                     DETONATION PROPERTIES OF AN IDEAL REACTING GAS
 CASE =                

             REACTANT                       MOLES         ENERGY      TEMP
                                                         KJ/KG-MOL      K
 FUEL        C2H5OH                       1.0000000   -234828.916    300.000
 OXIDANT     O2                           3.0000000        54.358    300.000
 OXIDANT     N2                          11.2857000        53.881    300.000

 O/F=   11.18301  %FUEL=  8.208149  R,EQ.RATIO= 0.823529  PHI,EQ.RATIO= 0.800000

 UNBURNED GAS

 P1, BAR           1.0000
 T1, K             300.00
 H1, KJ/KG        -416.68
 M1, (1/n)         29.763
 GAMMA1            1.3647
 SON VEL1,M/SEC     338.2

 BURNED GAS

 P, BAR            16.542
 T, K             2609.18
 RHO, KG/CU M    2.1384 0
 H, KJ/KG          597.96
 U, KJ/KG         -175.59
 G, KJ/KG        -23199.3
 S, KJ/(KG)(K)     9.1206

 M, (1/n)          28.045
 (dLV/dLP)t      -1.00323
 (dLV/dLT)p        1.0824
 Cp, KJ/(KG)(K)    2.1693
 GAMMAs            1.1861
 SON VEL,M/SEC      957.9

 DETONATION PARAMETERS

 P/P1              16.542
 T/T1               8.697
 M/M1              0.9422
 RHO/RHO1          1.7921
 DET MACH NUMBER   5.0759
 DET VEL,M/SEC     1716.6

 MOLE FRACTIONS

 *C              1.341-15
 *CH             2.224-16
 CH2             4.140-16
 CH3             9.451-16
 CH2OH           2.160-15
 CH3O            3.846-16
 CH4             2.427-16
 CH3OH           1.052-16
 *CN             1.727-12
 *CO             7.8053-3
 *CO2            9.2130-2
 COOH            8.7487-8
 HO(CO)2OH       1.308-16
 C2O             1.477-16
 *H              4.2487-4
 HCN             1.157-10
 HCO             6.6358-9
 HNC             1.393-11
 HNCO            2.5173-9
 HNO             7.7183-7
 HNO2            8.2307-7
 HNO3            1.967-10
 HO2             1.2045-5
 *H2             1.8749-3
 HCHO,formaldehy 9.863-11
 HCOOH           6.9051-9
 H2O             1.4364-1
 H2O2            9.6539-7
 *N              1.5826-7
 NCO             3.859-10
 *NH             2.8658-8
 NH2             9.9279-9
 NH3             1.0564-8
 NH2OH           1.343-11
 *NO             1.0551-2
 NO2             1.3984-5
 NO3             6.337-11
 *N2             6.9962-1
 NCN             1.177-16
 N2H2            1.358-12
 NH2NO2          6.016-16
 N2O             2.2582-6
 N2O3            3.435-12
 N2O4            1.612-16
 N3              2.348-12
 N3H             4.836-13
 *O              1.1074-3
 *OH             8.3386-3
 *O2             3.4483-2
 O3              1.3081-8

  * THERMODYNAMIC PROPERTIES FITTED TO 20000.K


                     DETONATION PROPERTIES OF AN IDEAL REACTING GAS
 CASE =                

             REACTANT                       MOLES         ENERGY      TEMP
                                                         KJ/KG-MOL      K
 FUEL        C2H5OH                       1.0000000   -234828.916    300.000
 OXIDANT     O2                           3.0000000        54.358    300.000
 OXIDANT     N2                          11.2857000        53.881    300.000

 O/F=    9.94046  %FUEL=  9.140386  R,EQ.RATIO= 0.913043  PHI,EQ.RATIO= 0.900000

 UNBURNED GAS

 P1, BAR           1.0000
 T1, K             300.00
 H1, KJ/KG        -464.22
 M1, (1/n)         29.871
 GAMMA1            1.3611
 SON VEL1,M/SEC     337.1

 BURNED GAS

 P, BAR            17.546
 T, K             2713.81
 RHO, KG/CU M    2.1622 0
 H, KJ/KG          609.21
 U, KJ/KG         -202.26
 G, KJ/KG        -24487.2
 S, KJ/(KG)(K)     9.2477

 M, (1/n)          27.806
 (dLV/dLP)t      -1.00541
 (dLV/dLT)p        1.1328
 Cp, KJ/(KG)(K)    2.5379
 GAMMAs            1.1707
 SON VEL,M/SEC      974.7

 DETONATION PARAMETERS

 P/P1              17.546
 T/T1               9.046
 M/M1              0.9309
 RHO/RHO1          1.8055
 DET MACH NUMBER   5.2198
 DET VEL,M/SEC     1759.8

 MOLE FRACTIONS

 *C              1.548-14
 *CH             3.095-15
 CH2             5.927-15
 CH3             1.314-14
 CH2OH           1.787-14
 CH3O            3.455-15
 CH4             3.472-15
 CH3OH           9.420-16
 *CN             1.227-11
 *CO             1.6242-2
 *CO2            9.4097-2
 COOH            1.8419-7
 CH2CO,ketene    1.862-16
 HO(CO)2OH       3.718-16
 OCCN            5.595-16
 C2O             2.181-15
 *H              9.0366-4
 HCN             7.224-10
 HCO             2.7182-8
 HCCO            1.013-16
 HNC             9.706-11
 HNCO            8.0234-9
 HNO             1.0799-6
 HNO2            6.6850-7
 HNO3            1.173-10
 HO2             1.1070-5
 *H2             3.9868-3
 HCHO,formaldehy 4.637-10
 HCOOH           1.6553-8
 H2O             1.5605-1
 H2O2            1.0230-6
 *N              3.5846-7
 NCO             1.2892-9
 *NH             7.8185-8
 NH2             2.9954-8
 NH3             3.1326-8
 NH2OH           3.249-11
 *NO             9.5429-3
 NO2             9.1873-6
 NO3             3.620-11
 *N2             6.8703-1
 NCN             9.758-16
 N2H2            4.473-12
 NH2NO2          8.402-16
 N2O             2.0915-6
 N2O3            2.079-12
 N3              5.203-12
 N3H             1.247-12
 *O              1.3162-3
 *OH             1.0028-2
 *O2             2.0774-2
 O3              8.3756-9

  * THERMODYNAMIC PROPERTIES FITTED TO 20000.K


                     DETONATION PROPERTIES OF AN IDEAL REACTING GAS
 CASE =                

             REACTANT                       MOLES         ENERGY      TEMP
                                                         KJ/KG-MOL      K
 FUEL        C2H5OH                       1.0000000   -234828.916    300.000
 OXIDANT     O2                           3.0000000        54.358    300.000
 OXIDANT     N2                          11.2857000        53.881    300.000

 O/F=    8.94641  %FUEL= 10.053877  R,EQ.RATIO= 1.000000  PHI,EQ.RATIO= 1.000000

 UNBURNED GAS

 P1, BAR           1.0000
 T1, K             300.00
 H1, KJ/KG        -510.80
 M1, (1/n)         29.977
 GAMMA1            1.3576
 SON VEL1,M/SEC     336.1

 BURNED GAS

 P, BAR            18.285
 T, K             2777.93
 RHO, KG/CU M    2.1782 0
 H, KJ/KG          605.11
 U, KJ/KG         -234.33
 G, KJ/KG        -25409.7
 S, KJ/(KG)(K)     9.3648

 M, (1/n)          27.515
 (dLV/dLP)t      -1.00694
 (dLV/dLT)p        1.1670
 Cp, KJ/(KG)(K)    2.7916
 GAMMAs            1.1634
 SON VEL,M/SEC      988.3

 DETONATION PARAMETERS

 P/P1              18.285
 T/T1               9.260
 M/M1              0.9179
 RHO/RHO1          1.8125
 DET MACH NUMBER   5.3293
 DET VEL,M/SEC     1791.2

 MOLE FRACTIONS

 *C              8.460-14
 *CH             2.070-14
 CH2             4.428-14
 CH3             1.061-13
 CH2OH           9.098-14
 CH3O            1.845-14
 CH4             3.138-14
 CH3OH           5.522-15
 *CN             5.070-11
 *CO             2.8124-2
 *CO2            9.1970-2
 COOH            3.0008-7
 CH2CO,ketene    1.820-15
 HO(CO)2OH       7.708-16
 OCCN            3.749-15
 C2O             1.571-14
 *H              1.5227-3
 HCN             3.0448-9
 HCO             7.6408-8
 HCCO            8.996-16
 HNC             4.356-10
 HNCO            1.9513-8
 HNO             1.2151-6
 HNO2            4.6719-7
 HNO3            5.832-11
 HO2             8.3112-6
 *H2             7.3814-3
 HCHO,formaldehy 1.5517-9
 HCOOH           3.1955-8
 H2O             1.6682-1
 H2O2            9.1643-7
 *N              5.6933-7
 NCO             2.9308-9
 *NH             1.5191-7
 NH2             6.7798-8
 NH3             7.7172-8
 NH2OH           6.054-11
 *NO             7.5922-3
 NO2             5.1693-6
 NO3             1.597-11
 *N2             6.7387-1
 NCN             4.402-15
 N2H2            1.065-11
 NH2NO2          8.819-16
 N2H4            1.577-16
 N2O             1.6866-6
 N2O3            9.481-13
 N3              8.150-12
 N3H             2.342-12
 *O              1.2265-3
 *OH             1.0340-2
 *O2             1.1126-2
 O3              3.9574-9

  * THERMODYNAMIC PROPERTIES FITTED TO 20000.K


                     DETONATION PROPERTIES OF AN IDEAL REACTING GAS
 CASE =                

             REACTANT                       MOLES         ENERGY      TEMP
                                                         KJ/KG-MOL      K
 FUEL        C2H5OH                       1.0000000   -234828.916    300.000
 OXIDANT     O2                           3.0000000        54.358    300.000
 OXIDANT     N2                          11.2857000        53.881    300.000

 O/F=    8.13310  %FUEL= 10.949183  R,EQ.RATIO= 1.084507  PHI,EQ.RATIO= 1.100000

 UNBURNED GAS

 P1, BAR           1.0000
 T1, K             300.00
 H1, KJ/KG        -556.46
 M1, (1/n)         30.081
 GAMMA1            1.3543
 SON VEL1,M/SEC     335.1

 BURNED GAS

 P, BAR            18.741
 T, K             2803.33
 RHO, KG/CU M    2.1850 0
 H, KJ/KG          585.03
 U, KJ/KG         -272.65
 G, KJ/KG        -25971.4
 S, KJ/(KG)(K)     9.4732

 M, (1/n)          27.176
 (dLV/dLP)t      -1.00667
 (dLV/dLT)p        1.1599
 Cp, KJ/(KG)(K)    2.7610
 GAMMAs            1.1661
 SON VEL,M/SEC     1000.1

 DETONATION PARAMETERS

 P/P1              18.741
 T/T1               9.344
 M/M1              0.9034
 RHO/RHO1          1.8118
 DET MACH NUMBER   5.4070
 DET VEL,M/SEC     1811.9

 MOLE FRACTIONS

 *C              2.602-13
 *CH             7.982-14
 CH2             2.067-13
 CH3             5.920-13
 CH2OH           3.270-13
 CH3O            6.755-14
 CH4             2.122-13
 CH3OH           2.430-14
 *CN             1.397-10
 *CO             4.2785-2
 *CO2            8.6393-2
 COOH            3.9785-7
 C2H2,acetylene  2.155-16
 CH2CO,ketene    1.171-14
 O(CH)2O         2.951-16
 HO(CO)2OH       1.243-15
 OCCN            1.547-14
 C2N2            1.322-16
 C2O             6.681-14
 C3O2            1.136-16
 *H              2.1395-3
 HCN             9.8115-9
 HCO             1.6242-7
 HCCO            4.807-15
 HNC             1.4381-9
 HNCO            3.9151-8
 HNO             1.1219-6
 HNO2            2.7623-7
 HNO3            2.327-11
 HO2             5.0624-6
 *H2             1.2475-2
 HCHO,formaldehy 4.0918-9
 HCOOH           5.2466-8
 H2O             1.7559-1
 H2O2            6.9304-7
 *N              6.7245-7
 NCO             4.9386-9
 *NH             2.2489-7
 NH2             1.2348-7
 NH3             1.6847-7
 NH2OH           9.131-11
 *NO             5.2882-3
 NO2             2.4240-6
 NO3             5.247-12
 *N2             6.6002-1
 NCN             1.252-14
 N2H2            1.974-11
 NH2NO2          7.057-16
 N2H4            4.819-16
 N2O             1.1783-6
 N2O3            3.146-13
 N3              9.533-12
 N3H             3.408-12
 *O              9.0984-4
 *OH             9.2507-3
 *O2             5.1310-3
 O3              1.3380-9

  * THERMODYNAMIC PROPERTIES FITTED TO 20000.K


                     DETONATION PROPERTIES OF AN IDEAL REACTING GAS
 CASE =                

             REACTANT                       MOLES         ENERGY      TEMP
                                                         KJ/KG-MOL      K
 FUEL        C2H5OH                       1.0000000   -234828.916    300.000
 OXIDANT     O2                           3.0000000        54.358    300.000
 OXIDANT     N2                          11.2857000        53.881    300.000

 O/F=    7.45534  %FUEL= 11.826841  R,EQ.RATIO= 1.166667  PHI,EQ.RATIO= 1.200000

 UNBURNED GAS

 P1, BAR           1.0000
 T1, K             300.00
 H1, KJ/KG        -601.21
 M1, (1/n)         30.185
 GAMMA1            1.3510
 SON VEL1,M/SEC     334.1

 BURNED GAS

 P, BAR            18.912
 T, K             2792.19
 RHO, KG/CU M    2.1829 0
 H, KJ/KG          549.16
 U, KJ/KG         -317.20
 G, KJ/KG        -26181.6
 S, KJ/(KG)(K)     9.5734

 M, (1/n)          26.797
 (dLV/dLP)t      -1.00493
 (dLV/dLT)p        1.1187
 Cp, KJ/(KG)(K)    2.4871
 GAMMAs            1.1782
 SON VEL,M/SEC     1010.3

 DETONATION PARAMETERS

 P/P1              18.912
 T/T1               9.307
 M/M1              0.8878
 RHO/RHO1          1.8039
 DET MACH NUMBER   5.4544
 DET VEL,M/SEC     1822.5

 MOLE FRACTIONS

 *C              4.970-13
 *CH             1.967-13
 CH2             6.675-13
 CH3             2.519-12
 CH2OH           8.972-13
 CH3O            1.839-13
 CH4             1.182-12
 CH3OH           8.694-14
 *CN             2.783-10
 CNN             1.832-16
 *CO             5.9140-2
 *CO2            7.8447-2
 COOH            4.4268-7
 C2H2,acetylene  1.557-15
 CH2CO,ketene    5.566-14
 O(CH)2O         9.027-16
 HO(CO)2OH       1.630-15
 OCCN            4.375-14
 C2N2            5.812-16
 C2O             1.876-13
 C3O2            4.650-16
 *H              2.5753-3
 HCN             2.6000-8
 HCO             2.7631-7
 HCCO            1.740-14
 HNC             3.7709-9
 HNCO            6.7907-8
 HNO             8.5832-7
 HNO2            1.3664-7
 HNO3            7.274-12
 HO2             2.4864-6
 *H2             1.9730-2
 HCHO,formaldehy 9.0240-9
 HCOOH           7.5735-8
 H2O             1.8175-1
 H2O2            4.4110-7
 *N              6.0950-7
 NCO             6.4905-9
 *NH             2.6306-7
 NH2             1.8792-7
 NH3             3.3740-7
 NH2OH           1.144-10
 *NO             3.2126-3
 NO2             9.3157-7
 NO3             1.254-12
 *N2             6.4538-1
 NCN             2.446-14
 N2H2            2.964-11
 NH2NO2          4.331-16
 N2H4            1.180-15
 N2O             7.1071-7
 N2O3            7.441-14
 N3              8.577-12
 N3H             3.970-12
 *O              5.4089-4
 *OH             7.2173-3
 *O2             1.9979-3
 O3              3.175-10

  * THERMODYNAMIC PROPERTIES FITTED TO 20000.K


                     DETONATION PROPERTIES OF AN IDEAL REACTING GAS
 CASE =                

             REACTANT                       MOLES         ENERGY      TEMP
                                                         KJ/KG-MOL      K
 FUEL        C2H5OH                       1.0000000   -234828.916    300.000
 OXIDANT     O2                           3.0000000        54.358    300.000
 OXIDANT     N2                          11.2857000        53.881    300.000

 O/F=    6.88186  %FUEL= 12.687368  R,EQ.RATIO= 1.246575  PHI,EQ.RATIO= 1.300000

 UNBURNED GAS

 P1, BAR           1.0000
 T1, K             300.00
 H1, KJ/KG        -645.09
 M1, (1/n)         30.286
 GAMMA1            1.3478
 SON VEL1,M/SEC     333.2

 BURNED GAS

 P, BAR            18.862
 T, K             2750.94
 RHO, KG/CU M    2.1763 0
 H, KJ/KG          500.85
 U, KJ/KG         -365.88
 G, KJ/KG        -26089.9
 S, KJ/(KG)(K)     9.6661

 M, (1/n)          26.390
 (dLV/dLP)t      -1.00314
 (dLV/dLT)p        1.0761
 Cp, KJ/(KG)(K)    2.1921
 GAMMAs            1.1952
 SON VEL,M/SEC     1017.8

 DETONATION PARAMETERS

 P/P1              18.862
 T/T1               9.170
 M/M1              0.8713
 RHO/RHO1          1.7923
 DET MACH NUMBER   5.4752
 DET VEL,M/SEC     1824.2

 MOLE FRACTIONS

 *C              6.382-13
 *CH             3.335-13
 CH2             1.582-12
 CH3             8.524-12
 CH2OH           1.962-12
 CH3O            3.900-13
 CH4             5.588-12
 CH3OH           2.608-13
 *CN             4.238-10
 CNN             2.405-16
 *CO             7.5755-2
 *CO2            6.9599-2
 COOH            4.2658-7
 C2H2,acetylene  8.304-15
 CH2CO,ketene    2.065-13
 O(CH)2O         2.146-15
 HO(CO)2OH       1.811-15
 OCCN            9.101-14
 C2N2            1.913-15
 C2O             3.751-13
 C3O2            1.402-15
 *H              2.7134-3
 HCN             5.8614-8
 HCO             3.9088-7
 HCCO            4.574-14
 HNC             8.1706-9
 HNCO            1.0458-7
 HNO             5.5969-7
 HNO2            5.8110-8
 HNO3            1.851-12
 HO2             1.0171-6
 *H2             2.9377-2
 HCHO,formaldehy 1.7148-8
 HCOOH           9.8317-8
 H2O             1.8479-1
 H2O2            2.4206-7
 *N              4.4168-7
 NCO             6.9556-9
 *NH             2.5173-7
 NH2             2.4490-7
 NH3             6.2501-7
 NH2OH           1.220-10
 *NO             1.7390-3
 NO2             3.0293-7
 NO3             2.294-13
 *N2             6.3007-1
 NCN             3.500-14
 N2H2            3.716-11
 NH2NO2          2.123-16
 N2H4            2.384-15
 N2O             3.7898-7
 N2O3            1.325-14
 N3              6.190-12
 N3H             3.830-12
 *O              2.6666-4
 *OH             5.0062-3
 *O2             6.7458-4
 O3              5.599-11

  * THERMODYNAMIC PROPERTIES FITTED TO 20000.K


                     DETONATION PROPERTIES OF AN IDEAL REACTING GAS
 CASE =                

             REACTANT                       MOLES         ENERGY      TEMP
                                                         KJ/KG-MOL      K
 FUEL        C2H5OH                       1.0000000   -234828.916    300.000
 OXIDANT     O2                           3.0000000        54.358    300.000
 OXIDANT     N2                          11.2857000        53.881    300.000

 O/F=    6.39029  %FUEL= 13.531261  R,EQ.RATIO= 1.324324  PHI,EQ.RATIO= 1.400000

 UNBURNED GAS

 P1, BAR           1.0000
 T1, K             300.00
 H1, KJ/KG        -688.12
 M1, (1/n)         30.387
 GAMMA1            1.3448
 SON VEL1,M/SEC     332.2

 BURNED GAS

 P, BAR            18.693
 T, K             2690.47
 RHO, KG/CU M    2.1703 0
 H, KJ/KG          445.69
 U, KJ/KG         -415.65
 G, KJ/KG        -25791.9
 S, KJ/(KG)(K)     9.7520

 M, (1/n)          25.971
 (dLV/dLP)t      -1.00196
 (dLV/dLT)p        1.0477
 Cp, KJ/(KG)(K)    1.9931
 GAMMAs            1.2112
 SON VEL,M/SEC     1021.4

 DETONATION PARAMETERS

 P/P1              18.693
 T/T1               8.968
 M/M1              0.8547
 RHO/RHO1          1.7815
 DET MACH NUMBER   5.4766
 DET VEL,M/SEC     1819.6

 MOLE FRACTIONS

 *C              6.060-13
 *CH             4.213-13
 CH2             2.904-12
 CH3             2.346-11
 CH2OH           3.541-12
 CH3O            6.724-13
 CH4             2.231-11
 CH3OH           6.644-13
 *CN             5.230-10
 CNN             2.378-16
 *CO             9.1342-2
 *CO2            6.1222-2
 COOH            3.7113-7
 C2H             2.232-16
 C2H2,acetylene  3.377-14
 CH2CO,ketene    6.169-13
 O(CH)2O         4.154-15
 HO(CO)2OH       1.793-15
 CH3CO,acetyl    1.900-16
 OCCN            1.487-13
 C2N2            4.942-15
 C2O             5.753-13
 C3O2            3.307-15
 *H              2.5759-3
 HCN             1.1465-7
 HCO             4.7815-7
 HCCO            9.277-14
 HNC             1.5044-8
 HNCO            1.4609-7
 HNO             3.2773-7
 HNO2            2.2639-8
 HNO3            4.212-13
 HO2             3.7229-7
 *H2             4.1160-2
 HCHO,formaldehy 2.8672-8
 HCOOH           1.1743-7
 H2O             1.8479-1
 H2O2            1.2082-7
 *N              2.7291-7
 NCO             6.4163-9
 *NH             2.0707-7
 NH2             2.8110-7
 NH3             1.0686-6
 NH2OH           1.149-10
 *NO             8.7902-4
 NO2             8.9950-8
 NO3             3.624-14
 *N2             6.1449-1
 NCN             3.944-14
 N2H2            4.038-11
 N2H4            4.070-15
 N2O             1.8791-7
 N2O3            2.015-15
 N3              3.826-12
 N3H             3.213-12
 *O              1.1655-4
 *OH             3.2079-3
 *O2             2.1137-4
 O3              8.339-12

  * THERMODYNAMIC PROPERTIES FITTED TO 20000.K


                     DETONATION PROPERTIES OF AN IDEAL REACTING GAS
 CASE =                

             REACTANT                       MOLES         ENERGY      TEMP
                                                         KJ/KG-MOL      K
 FUEL        C2H5OH                       1.0000000   -234828.916    300.000
 OXIDANT     O2                           3.0000000        54.358    300.000
 OXIDANT     N2                          11.2857000        53.881    300.000

 O/F=    5.96427  %FUEL= 14.358998  R,EQ.RATIO= 1.400000  PHI,EQ.RATIO= 1.500000

 UNBURNED GAS

 P1, BAR           1.0000
 T1, K             300.00
 H1, KJ/KG        -730.33
 M1, (1/n)         30.486
 GAMMA1            1.3418
 SON VEL1,M/SEC     331.3

 BURNED GAS

 P, BAR            18.475
 T, K             2620.57
 RHO, KG/CU M    2.1669 0
 H, KJ/KG          387.80
 U, KJ/KG         -464.81
 G, KJ/KG        -25377.9
 S, KJ/(KG)(K)     9.8321

 M, (1/n)          25.555
 (dLV/dLP)t      -1.00128
 (dLV/dLT)p        1.0309
 Cp, KJ/(KG)(K)    1.8781
 GAMMAs            1.2238
 SON VEL,M/SEC     1021.5

 DETONATION PARAMETERS

 P/P1              18.475
 T/T1               8.735
 M/M1              0.8382
 RHO/RHO1          1.7729
 DET MACH NUMBER   5.4657
 DET VEL,M/SEC     1811.0

 MOLE FRACTIONS

 *C              4.658-13
 *CH             4.293-13
 CH2             4.362-12
 CH3             5.400-11
 CH2OH           5.485-12
 CH3O            9.858-13
 CH4             7.571-11
 CH3OH           1.466-12
 *CN             5.538-10
 CNN             1.928-16
 *CO             1.0527-1
 *CO2            5.4032-2
 COOH            3.0295-7
 C2H             4.207-16
 C2H2,acetylene  1.091-13
 C2H2,vinylidene 1.254-16
 CH2CO,ketene    1.537-12
 O(CH)2O         6.864-15
 HO(CO)2OH       1.655-15
 CH3CN           1.011-16
 CH3CO,acetyl    5.141-16
 OCCN            2.031-13
 C2N2            1.052-14
 C2O             7.265-13
 C3O2            6.464-15
 *H              2.2690-3
 HCN             1.9899-7
 HCO             5.2569-7
 HCCO            1.541-13
 HNC             2.4264-8
 HNCO            1.8914-7
 HNO             1.8075-7
 HNO2            8.5424-9
 HNO3            9.288-14
 HO2             1.2993-7
 *H2             5.4489-2
 HCHO,formaldehy 4.3185-8
 HCOOH           1.3203-7
 H2O             1.8235-1
 H2O2            5.7585-8
 *N              1.5262-7
 NCO             5.3565-9
 *NH             1.5359-7
 NH2             2.9283-7
 NH3             1.6924-6
 NH2OH           9.904-11
 *NO             4.3229-4
 NO2             2.6040-8
 NO3             5.474-15
 *N2             5.9907-1
 NCN             3.748-14
 N2H2            3.947-11
 N2H4            6.048-15
 N2O             9.0511-8
 N2O3            2.913-16
 N3              2.150-12
 N3H             2.451-12
 *O              4.7956-5
 *OH             1.9677-3
 *O2             6.5174-5
 O3              1.173-12

  * THERMODYNAMIC PROPERTIES FITTED TO 20000.K


                     DETONATION PROPERTIES OF AN IDEAL REACTING GAS
 CASE =                

             REACTANT                       MOLES         ENERGY      TEMP
                                                         KJ/KG-MOL      K
 FUEL        C2H5OH                       1.0000000   -234828.916    300.000
 OXIDANT     O2                           3.0000000        54.358    300.000
 OXIDANT     N2                          11.2857000        53.881    300.000

 O/F=    5.59151  %FUEL= 15.171037  R,EQ.RATIO= 1.473684  PHI,EQ.RATIO= 1.600000

 UNBURNED GAS

 P1, BAR           1.0000
 T1, K             300.00
 H1, KJ/KG        -771.74
 M1, (1/n)         30.585
 GAMMA1            1.3389
 SON VEL1,M/SEC     330.4

 BURNED GAS

 P, BAR            18.237
 T, K             2547.04
 RHO, KG/CU M    2.1658 0
 H, KJ/KG          329.07
 U, KJ/KG         -512.96
 G, KJ/KG        -24904.3
 S, KJ/(KG)(K)     9.9069

 M, (1/n)          25.150
 (dLV/dLP)t      -1.00086
 (dLV/dLT)p        1.0209
 Cp, KJ/(KG)(K)    1.8129
 GAMMAs            1.2333
 SON VEL,M/SEC     1019.1

 DETONATION PARAMETERS

 P/P1              18.237
 T/T1               8.490
 M/M1              0.8223
 RHO/RHO1          1.7663
 DET MACH NUMBER   5.4473
 DET VEL,M/SEC     1800.0

 MOLE FRACTIONS

 *C              3.090-13
 *CH             3.744-13
 CH2             5.628-12
 CH3             1.077-10
 CH2OH           7.555-12
 CH3O            1.278-12
 CH4             2.236-10
 CH3OH           2.878-12
 *CN             5.252-10
 CNN             1.361-16
 *CO             1.1750-1
 *CO2            4.8144-2
 COOH            2.3791-7
 C2H             6.458-16
 C2H2,acetylene  2.928-13
 C2H2,vinylidene 2.669-16
 CH2CO,ketene    3.321-12
 O(CH)2O         1.008-14
 HO(CO)2OH       1.468-15
 CH3CN           3.692-16
 CH3CO,acetyl    1.171-15
 C2H4            2.305-16
 CH3CHO,ethanal  1.216-16
 OCCN            2.437-13
 C2N2            1.929-14
 C2O             7.979-13
 C3O2            1.101-14
 *H              1.8947-3
 HCN             3.1417-7
 HCO             5.3530-7
 HCCO            2.207-13
 HNC             3.5303-8
 HNCO            2.3140-7
 HNO             9.6501-8
 HNO2            3.2088-9
 HNO3            2.062-14
 HO2             4.4677-8
 *H2             6.8758-2
 HCHO,formaldehy 5.9993-8
 HCOOH           1.4232-7
 H2O             1.7817-1
 H2O2            2.6910-8
 *N              8.0142-8
 NCO             4.1868-9
 *NH             1.0608-7
 NH2             2.8362-7
 NH3             2.5099-6
 NH2OH           8.029-11
 *NO             2.1116-4
 NO2             7.5794-9
 NO3             8.302-16
 *N2             5.8410-1
 NCN             3.157-14
 N2H2            3.571-11
 N2H4            8.050-15
 N2O             4.3296-8
 N3              1.139-12
 N3H             1.754-12
 *O              1.9190-5
 *OH             1.1793-3
 *O2             2.0312-5
 O3              1.644-13

  * THERMODYNAMIC PROPERTIES FITTED TO 20000.K


                     DETONATION PROPERTIES OF AN IDEAL REACTING GAS
 CASE =                

             REACTANT                       MOLES         ENERGY      TEMP
                                                         KJ/KG-MOL      K
 FUEL        C2H5OH                       1.0000000   -234828.916    300.000
 OXIDANT     O2                           3.0000000        54.358    300.000
 OXIDANT     N2                          11.2857000        53.881    300.000

 O/F=    5.26260  %FUEL= 15.967821  R,EQ.RATIO= 1.545455  PHI,EQ.RATIO= 1.700000

 UNBURNED GAS

 P1, BAR           1.0000
 T1, K             300.00
 H1, KJ/KG        -812.37
 M1, (1/n)         30.681
 GAMMA1            1.3361
 SON VEL1,M/SEC     329.6

 BURNED GAS

 P, BAR            17.987
 T, K             2472.74
 RHO, KG/CU M    2.1662 0
 H, KJ/KG          270.26
 U, KJ/KG         -560.11
 G, KJ/KG        -24400.4
 S, KJ/(KG)(K)     9.9771

 M, (1/n)          24.760
 (dLV/dLP)t      -1.00060
 (dLV/dLT)p        1.0145
 Cp, KJ/(KG)(K)    1.7752
 GAMMAs            1.2408
 SON VEL,M/SEC     1015.1

 DETONATION PARAMETERS

 P/P1              17.987
 T/T1               8.242
 M/M1              0.8070
 RHO/RHO1          1.7611
 DET MACH NUMBER   5.4239
 DET VEL,M/SEC     1787.6

 MOLE FRACTIONS

 *C              1.839-13
 *CH             2.907-13
 CH2             6.465-12
 CH3             1.918-10
 CH2OH           9.517-12
 CH3O            1.511-12
 CH4             5.914-10
 CH3OH           5.160-12
 *CN             4.589-10
 *CO             1.2824-1
 *CO2            4.3400-2
 COOH            1.8228-7
 C2H             8.487-16
 C2H2,acetylene  6.817-13
 C2H2,vinylidene 4.842-16
 CH2CO,ketene    6.435-12
 O(CH)2O         1.359-14
 HO(CO)2OH       1.273-15
 C2H3,vinyl      1.250-16
 CH3CN           1.164-15
 CH3CO,acetyl    2.336-15
 C2H4            8.344-16
 CH3CHO,ethanal  3.347-16
 CH3COOH         1.204-16
 OCCN            2.660-13
 C2N2            3.162-14
 C2O             7.912-13
 C3O2            1.696-14
 *H              1.5200-3
 HCN             4.6109-7
 HCO             5.1529-7
 HCCO            2.828-13
 HNC             4.7468-8
 HNCO            2.7157-7
 HNO             5.0487-8
 HNO2            1.2098-9
 HNO3            4.654-15
 HO2             1.5301-8
 *H2             8.3491-2
 HCHO,formaldehy 7.8395-8
 HCOOH           1.4901-7
 H2O             1.7285-1
 H2O2            1.2455-8
 *N              4.0255-8
 NCO             3.1255-9
 *NH             6.9521-8
 NH2             2.5978-7
 NH3             3.5308-6
 NH2OH           6.220-11
 *NO             1.0311-4
 NO2             2.2345-9
 NO3             1.280-16
 *N2             5.6968-1
 NCN             2.434-14
 N2H2            3.049-11
 N2H4            9.829-15
 N2O             2.0711-8
 N3              5.789-13
 N3H             1.197-12
 *O              7.5613-6
 *OH             6.9657-4
 *O2             6.4339-6
 O3              2.330-14

  * THERMODYNAMIC PROPERTIES FITTED TO 20000.K


                     DETONATION PROPERTIES OF AN IDEAL REACTING GAS
 CASE =                

             REACTANT                       MOLES         ENERGY      TEMP
                                                         KJ/KG-MOL      K
 FUEL        C2H5OH                       1.0000000   -234828.916    300.000
 OXIDANT     O2                           3.0000000        54.358    300.000
 OXIDANT     N2                          11.2857000        53.881    300.000

 O/F=    4.97023  %FUEL= 16.749777  R,EQ.RATIO= 1.615385  PHI,EQ.RATIO= 1.800000

 UNBURNED GAS

 P1, BAR           1.0000
 T1, K             300.00
 H1, KJ/KG        -852.24
 M1, (1/n)         30.777
 GAMMA1            1.3334
 SON VEL1,M/SEC     328.7

 BURNED GAS

 P, BAR            17.730
 T, K             2399.01
 RHO, KG/CU M    2.1676 0
 H, KJ/KG          211.65
 U, KJ/KG         -606.34
 G, KJ/KG        -23881.5
 S, KJ/(KG)(K)    10.0429

 M, (1/n)          24.385
 (dLV/dLP)t      -1.00042
 (dLV/dLT)p        1.0102
 Cp, KJ/(KG)(K)    1.7533
 GAMMAs            1.2470
 SON VEL,M/SEC     1010.0

 DETONATION PARAMETERS

 P/P1              17.730
 T/T1               7.997
 M/M1              0.7923
 RHO/RHO1          1.7567
 DET MACH NUMBER   5.3971
 DET VEL,M/SEC     1774.2

 MOLE FRACTIONS

 *C              1.005-13
 *CH             2.060-13
 CH2             6.780-12
 CH3             3.131-10
 CH2OH           1.119-11
 CH3O            1.662-12
 CH4             1.4365-9
 CH3OH           8.626-12
 *CN             3.761-10
 *CO             1.3774-1
 *CO2            3.9580-2
 COOH            1.3724-7
 C2H             9.891-16
 C2H2,acetylene  1.422-12
 C2H2,vinylidene 7.761-16
 CH2CO,ketene    1.148-11
 O(CH)2O         1.717-14
 HO(CO)2OH       1.090-15
 C2H3,vinyl      2.563-16
 CH3CN           3.279-15
 CH3CO,acetyl    4.216-15
 C2H4            2.662-15
 CH3CHO,ethanal  8.304-16
 CH3COOH         2.447-16
 OCCN            2.702-13
 C2N2            4.757-14
 C2O             7.259-13
 C3O2            2.426-14
 *H              1.1812-3
 HCN             6.3983-7
 HCO             4.7521-7
 HCCO            3.331-13
 HNC             6.0054-8
 HNCO            3.0904-7
 HNO             2.5999-8
 HNO2            4.576-10
 HNO3            1.064-15
 HO2             5.2235-9
 *H2             9.8348-2
 HCHO,formaldehy 9.7799-8
 HCOOH           1.5287-7
 H2O             1.6683-1
 H2O2            5.7228-9
 *N              1.9510-8
 NCO             2.2535-9
 *NH             4.3685-8
 NH2             2.2764-7
 NH3             4.7652-6
 NH2OH           4.652-11
 *NO             5.0332-5
 NO2             6.655-10
 *N2             5.5585-1
 NCN             1.751-14
 N2H2            2.487-11
 N2H4            1.122-14
 N2O             9.9099-9
 N3              2.847-13
 N3H             7.865-13
 *O              2.9421-6
 *OH             4.0675-4
 *O2             2.0643-6
 O3              3.335-15

  * THERMODYNAMIC PROPERTIES FITTED TO 20000.K


                     DETONATION PROPERTIES OF AN IDEAL REACTING GAS
 CASE =                

             REACTANT                       MOLES         ENERGY      TEMP
                                                         KJ/KG-MOL      K
 FUEL        C2H5OH                       1.0000000   -234828.916    300.000
 OXIDANT     O2                           3.0000000        54.358    300.000
 OXIDANT     N2                          11.2857000        53.881    300.000

 O/F=    4.70864  %FUEL= 17.517314  R,EQ.RATIO= 1.683544  PHI,EQ.RATIO= 1.900000

 UNBURNED GAS

 P1, BAR           1.0000
 T1, K             300.00
 H1, KJ/KG        -891.38
 M1, (1/n)         30.872
 GAMMA1            1.3307
 SON VEL1,M/SEC     327.9

 BURNED GAS

 P, BAR            17.466
 T, K             2326.44
 RHO, KG/CU M    2.1694 0
 H, KJ/KG          153.30
 U, KJ/KG         -651.81
 G, KJ/KG        -23355.0
 S, KJ/(KG)(K)    10.1048

 M, (1/n)          24.026
 (dLV/dLP)t      -1.00030
 (dLV/dLT)p        1.0073
 Cp, KJ/(KG)(K)    1.7408
 GAMMAs            1.2522
 SON VEL,M/SEC     1004.1

 DETONATION PARAMETERS

 P/P1              17.466
 T/T1               7.755
 M/M1              0.7783
 RHO/RHO1          1.7528
 DET MACH NUMBER   5.3673
 DET VEL,M/SEC     1760.0

 MOLE FRACTIONS

 *C              5.110-14
 *CH             1.354-13
 CH2             6.609-12
 CH3             4.773-10
 CH2OH           1.246-11
 CH3O            1.728-12
 CH4             3.2726-9
 CH3OH           1.368-11
 *CN             2.926-10
 *CO             1.4623-1
 *CO2            3.6487-2
 COOH            1.0191-7
 C2H             1.047-15
 C2H2,acetylene  2.725-12
 C2H2,vinylidene 1.128-15
 CH2CO,ketene    1.925-11
 O(CH)2O         2.066-14
 HO(CO)2OH       9.269-16
 C2H3,vinyl      4.748-16
 CH3CN           8.481-15
 CH3CO,acetyl    7.044-15
 C2H4            7.715-15
 CH3CHO,ethanal  1.905-15
 CH3COOH         4.694-16
 OCCN            2.594-13
 C2N2            6.697-14
 C2O             6.258-13
 C3O2            3.284-14
 *H              8.9330-4
 HCN             8.5016-7
 HCO             4.2347-7
 HCCO            3.671-13
 HNC             7.2433-8
 HNCO            3.4360-7
 HNO             1.3188-8
 HNO2            1.730-10
 HNO3            2.448-16
 HO2             1.7717-9
 *H2             1.1311-1
 HCHO,formaldehy 1.1774-7
 HCOOH           1.5454-7
 H2O             1.6039-1
 H2O2            2.6072-9
 *N              9.1541-9
 NCO             1.5791-9
 *NH             2.6470-8
 NH2             1.9231-7
 NH3             6.2275-6
 NH2OH           3.379-11
 *NO             2.4494-5
 NO2             1.990-10
 *N2             5.4263-1
 NCN             1.189-14
 N2H2            1.954-11
 N2H4            1.213-14
 N2O             4.7305-9
 N3              1.359-13
 N3H             5.008-13
 *O              1.1288-6
 *OH             2.3481-4
 *O2             6.6646-7
 O3              4.776-16

  * THERMODYNAMIC PROPERTIES FITTED TO 20000.K


                     DETONATION PROPERTIES OF AN IDEAL REACTING GAS
 CASE =                

             REACTANT                       MOLES         ENERGY      TEMP
                                                         KJ/KG-MOL      K
 FUEL        C2H5OH                       1.0000000   -234828.916    300.000
 OXIDANT     O2                           3.0000000        54.358    300.000
 OXIDANT     N2                          11.2857000        53.881    300.000

 O/F=    4.47321  %FUEL= 18.270828  R,EQ.RATIO= 1.750000  PHI,EQ.RATIO= 2.000000

 UNBURNED GAS

 P1, BAR           1.0000
 T1, K             300.00
 H1, KJ/KG        -929.81
 M1, (1/n)         30.965
 GAMMA1            1.3281
 SON VEL1,M/SEC     327.1

 BURNED GAS

 P, BAR            17.196
 T, K             2255.40
 RHO, KG/CU M    2.1717 0
 H, KJ/KG          95.419
 U, KJ/KG         -696.43
 G, KJ/KG        -22826.4
 S, KJ/(KG)(K)    10.1631

 M, (1/n)          23.682
 (dLV/dLP)t      -1.00021
 (dLV/dLT)p        1.0052
 Cp, KJ/(KG)(K)    1.7343
 GAMMAs            1.2568
 SON VEL,M/SEC      997.6

 DETONATION PARAMETERS

 P/P1              17.196
 T/T1               7.518
 M/M1              0.7648
 RHO/RHO1          1.7494
 DET MACH NUMBER   5.3354
 DET VEL,M/SEC     1745.2

 MOLE FRACTIONS

 *C              2.442-14
 *CH             8.346-14
 CH2             6.065-12
 CH3             6.895-10
 CH2OH           1.329-11
 CH3O            1.717-12
 CH4             7.1050-9
 CH3OH           2.082-11
 *CN             2.179-10
 *CO             1.5388-1
 *CO2            3.3960-2
 COOH            7.4804-8
 C2H             1.025-15
 C2H2,acetylene  4.891-12
 C2H2,vinylidene 1.517-15
 CH2CO,ketene    3.075-11
 O(CH)2O         2.395-14
 HO(CO)2OH       7.850-16
 C2H3,vinyl      8.122-16
 CH3CN           2.057-14
 CH3CO,acetyl    1.108-14
 C2H4            2.078-14
 CH3CHO,ethanal  4.120-15
 CH3COOH         8.636-16
 OCCN            2.378-13
 C2N2            8.951-14
 C2O             5.128-13
 C3O2            4.259-14
 *H              6.5982-4
 HCN             1.0920-6
 HCO             3.6689-7
 HCCO            3.836-13
 HNC             8.4104-8
 HNCO            3.7532-7
 HNO             6.5900-9
 HNO2            6.512-11
 HO2             5.951-10
 *H2             1.2762-1
 HCHO,formaldehy 1.3787-7
 HCOOH           1.5458-7
 H2O             1.5374-1
 H2O2            1.1761-9
 *N              4.1674-9
 NCO             1.0798-9
 *NH             1.5530-8
 NH2             1.5755-7
 NH3             7.9378-6
 NH2OH           2.395-11
 *NO             1.1855-5
 NO2             5.939-11
 *N2             5.2998-1
 NCN             7.700-15
 N2H2            1.488-11
 N2H4            1.255-14
 N2O             2.2475-9
 N3              6.315-14
 N3H             3.101-13
 *O              4.2626-7
 *OH             1.3398-4
 *O2             2.1526-7

  * THERMODYNAMIC PROPERTIES FITTED TO 20000.K



