
 *******************************************************************************

         NASA-GLENN CHEMICAL EQUILIBRIUM PROGRAM CEA2, MAY 21, 2004
                   BY  BONNIE MCBRIDE AND SANFORD GORDON
      REFS: NASA RP-1311, PART I, 1994 AND NASA RP-1311, PART II, 1996

 *******************************************************************************



 problem    phi,eq.ratio=3.7,3.8,3.9,4,
       det   t,k=300,  p,bar=1,
 react
   fuel=C3H8 moles=1 t,k=300
   oxid=O2 moles=5 t,k=300
   oxid=N2 moles=18.8095 t,k=300
 output
      trace=1e-16 siunits short
 end


                     DETONATION PROPERTIES OF AN IDEAL REACTING GAS
 CASE =                

             REACTANT                       MOLES         ENERGY      TEMP
                                                         KJ/KG-MOL      K
 FUEL        C3H8                         1.0000000   -104543.521    300.000
 OXIDANT     O2                           5.0000000        54.358    300.000
 OXIDANT     N2                          18.8095000        53.881    300.000

 O/F=    4.21021  %FUEL= 19.193077  R,EQ.RATIO= 3.700000  PHI,EQ.RATIO= 3.700000

 UNBURNED GAS

 P1, BAR           1.0000
 T1, K             300.00
 H1, KJ/KG        -453.52
 M1, (1/n)         30.901
 GAMMA1            1.3092
 SON VEL1,M/SEC     325.1

 BURNED GAS

 P, BAR            11.765
 T, K             1313.52
 RHO, KG/CU M    2.1381 0
 H, KJ/KG          232.67
 U, KJ/KG         -317.56
 G, KJ/KG        -13596.6
 S, KJ/(KG)(K)    10.5284

 M, (1/n)          19.848
 MW, MOL WT        19.345
 (dLV/dLP)t      -1.01631
 (dLV/dLT)p        1.1760
 Cp, KJ/(KG)(K)    2.5979
 GAMMAs            1.2605
 SON VEL,M/SEC      832.8

 DETONATION PARAMETERS

 P/P1              11.765
 T/T1               4.378
 M/M1              0.6423
 RHO/RHO1          1.7259
 DET MACH NUMBER   4.4215
 DET VEL,M/SEC     1437.4

 MOLE FRACTIONS

 CH2             6.349-14
 CH3             1.2137-7
 CH2OH           1.528-12
 CH3O            4.489-14
 CH4             8.5883-3
 CH3OH           4.3765-9
 *CN             1.364-13
 *CO             2.1605-1
 *CO2            2.4867-3
 COOH            7.964-12
 C2H2,acetylene  2.2356-7
 C2H2,vinylidene 6.997-14
 CH2CO,ketene    7.5566-8
 O(CH)2O         2.834-14
 C2H3,vinyl      4.438-12
 CH3CN           5.5353-7
 CH3CO,acetyl    8.141-12
 C2H4            2.0476-6
 C2H4O,ethylen-o 4.140-15
 CH3CHO,ethanal  2.0172-9
 CH3COOH         9.287-12
 C2H5            6.670-11
 C2H6            3.4389-7
 C2H5OH          1.956-12
 CH3OCH3         3.224-15
 OCCN            9.782-15
 C2N2            4.212-11
 C2O             1.275-15
 C3H3,2-propynl  2.934-12
 C3H4,allene     9.410-11
 C3H4,propyne    2.888-10
 C3H4,cyclo-     2.807-14
 C3H5,allyl      3.825-12
 C3H6,propylene  1.4166-9
 C3H6,cyclo-     1.683-12
 C3H6O,acetone   9.904-13
 C3H6O,propanal  2.024-13
 C3H7,n-propyl   7.715-15
 C3H7,i-propyl   9.187-15
 C3H8            4.322-11
 C3H8O,1propanol 2.306-16
 C3H8O,2propanol 3.210-16
 C3O2            2.669-12
 C4H2,butadiyne  5.934-14
 C4H6,butadiene  1.912-12
 C4H6,1butyne    3.874-14
 C4H6,2butyne    6.404-14
 C4H6,cyclo-     1.280-15
 C4H8,1-butene   1.666-13
 C4H8,cis2-buten 9.342-14
 C4H8,tr2-butene 1.054-13
 C4H8,isobutene  1.369-13
 C4H10,n-butane  5.438-15
 C4H10,isobutane 2.257-15
 C5H6,1,3cyclo-  2.667-14
 C5H8,cyclo-     3.227-16
 C6H6            6.676-13
 C7H8            6.833-16
 *H              2.2059-7
 HCN             1.0260-4
 HCO             2.1125-9
 HCCO            1.097-13
 HNC             7.2537-7
 HNCO            6.5173-7
 HNO             2.425-16
 *H2             3.1278-1
 HCHO,formaldehy 3.8652-7
 HCOOH           1.0558-8
 H2O             6.5453-3
 NCO             8.331-14
 *NH             2.575-14
 NH2             2.564-10
 NH3             1.6313-4
 NH2OH           5.126-16
 *NO             4.597-13
 *N2             4.2791-1
 N2H2            6.813-15
 N2H4            1.032-15
 *OH             7.730-11
 C(gr)           2.5367-2

  * THERMODYNAMIC PROPERTIES FITTED TO 20000.K


                     DETONATION PROPERTIES OF AN IDEAL REACTING GAS
 CASE =                

             REACTANT                       MOLES         ENERGY      TEMP
                                                         KJ/KG-MOL      K
 FUEL        C3H8                         1.0000000   -104543.521    300.000
 OXIDANT     O2                           5.0000000        54.358    300.000
 OXIDANT     N2                          18.8095000        53.881    300.000

 O/F=    4.09942  %FUEL= 19.610085  R,EQ.RATIO= 3.800000  PHI,EQ.RATIO= 3.800000

 UNBURNED GAS

 P1, BAR           1.0000
 T1, K             300.00
 H1, KJ/KG        -463.42
 M1, (1/n)         30.949
 GAMMA1            1.3076
 SON VEL1,M/SEC     324.6

 BURNED GAS

 P, BAR            11.719
 T, K             1301.54
 RHO, KG/CU M    2.1452 0
 H, KJ/KG          218.40
 U, KJ/KG         -327.91
 G, KJ/KG        -13496.0
 S, KJ/(KG)(K)    10.5371

 M, (1/n)          19.809
 MW, MOL WT        19.176
 (dLV/dLP)t      -1.01790
 (dLV/dLT)p        1.1953
 Cp, KJ/(KG)(K)    2.7138
 GAMMAs            1.2548
 SON VEL,M/SEC      828.0

 DETONATION PARAMETERS

 P/P1              11.719
 T/T1               4.338
 M/M1              0.6401
 RHO/RHO1          1.7290
 DET MACH NUMBER   4.4095
 DET VEL,M/SEC     1431.5

 MOLE FRACTIONS

 CH2             4.621-14
 CH3             1.0936-7
 CH2OH           1.412-12
 CH3O            4.025-14
 CH4             9.4119-3
 CH3OH           4.7707-9
 *CN             9.365-14
 *CO             2.1166-1
 *CO2            2.7563-3
 COOH            7.633-12
 C2H2,acetylene  1.8634-7
 C2H2,vinylidene 5.001-14
 CH2CO,ketene    7.1190-8
 O(CH)2O         2.724-14
 C2H3,vinyl      3.523-12
 CH3CN           5.3129-7
 CH3CO,acetyl    7.468-12
 C2H4            2.0169-6
 C2H4O,ethylen-o 3.974-15
 CH3CHO,ethanal  2.1322-9
 CH3COOH         1.091-11
 C2H5            6.258-11
 C2H6            3.8567-7
 C2H5OH          2.219-12
 CH3OCH3         3.510-15
 OCCN            7.254-15
 C2N2            3.192-11
 C2O             8.883-16
 C3H3,2-propynl  2.257-12
 C3H4,allene     8.226-11
 C3H4,propyne    2.539-10
 C3H4,cyclo-     2.284-14
 C3H5,allyl      3.439-12
 C3H6,propylene  1.4540-9
 C3H6,cyclo-     1.678-12
 C3H6O,acetone   1.109-12
 C3H6O,propanal  2.198-13
 C3H7,n-propyl   7.443-15
 C3H7,i-propyl   8.951-15
 C3H8            4.995-11
 C3H8O,1propanol 2.701-16
 C3H8O,2propanol 3.801-16
 C3O2            2.291-12
 C4H2,butadiyne  4.091-14
 C4H6,butadiene  1.805-12
 C4H6,1butyne    3.507-14
 C4H6,2butyne    5.914-14
 C4H6,cyclo-     1.170-15
 C4H8,1-butene   1.763-13
 C4H8,cis2-buten 9.972-14
 C4H8,tr2-butene 1.126-13
 C4H8,isobutene  1.469-13
 C4H10,n-butane  6.471-15
 C4H10,isobutane 2.705-15
 C5H6,1,3cyclo-  2.481-14
 C5H8,cyclo-     3.319-16
 C6H6            6.496-13
 C7H8            6.934-16
 *H              1.8296-7
 HCN             9.1565-5
 HCO             1.8316-9
 HCCO            8.469-14
 HNC             6.1402-7
 HNCO            6.4213-7
 HNO             1.984-16
 *H2             3.1474-1
 HCHO,formaldehy 3.8388-7
 HCOOH           1.1682-8
 H2O             7.2542-3
 NCO             6.593-14
 *NH             1.899-14
 NH2             2.197-10
 NH3             1.7195-4
 NH2OH           4.821-16
 *NO             3.767-13
 *N2             4.2200-1
 N2H2            5.702-15
 N2H4            9.646-16
 *OH             6.705-11
 C(gr)           3.1919-2

  * THERMODYNAMIC PROPERTIES FITTED TO 20000.K


                     DETONATION PROPERTIES OF AN IDEAL REACTING GAS
 CASE =                

             REACTANT                       MOLES         ENERGY      TEMP
                                                         KJ/KG-MOL      K
 FUEL        C3H8                         1.0000000   -104543.521    300.000
 OXIDANT     O2                           5.0000000        54.358    300.000
 OXIDANT     N2                          18.8095000        53.881    300.000

 O/F=    3.99430  %FUEL= 20.022812  R,EQ.RATIO= 3.900000  PHI,EQ.RATIO= 3.900000

 UNBURNED GAS

 P1, BAR           1.0000
 T1, K             300.00
 H1, KJ/KG        -473.21
 M1, (1/n)         30.996
 GAMMA1            1.3060
 SON VEL1,M/SEC     324.2

 BURNED GAS

 P, BAR            11.678
 T, K             1290.38
 RHO, KG/CU M    2.1522 0
 H, KJ/KG          204.54
 U, KJ/KG         -338.10
 G, KJ/KG        -13403.0
 S, KJ/(KG)(K)    10.5454

 M, (1/n)          19.772
 MW, MOL WT        19.015
 (dLV/dLP)t      -1.01952
 (dLV/dLT)p        1.2151
 Cp, KJ/(KG)(K)    2.8342
 GAMMAs            1.2493
 SON VEL,M/SEC      823.4

 DETONATION PARAMETERS

 P/P1              11.678
 T/T1               4.301
 M/M1              0.6379
 RHO/RHO1          1.7319
 DET MACH NUMBER   4.3986
 DET VEL,M/SEC     1426.0

 MOLE FRACTIONS

 CH2             3.419-14
 CH3             9.9057-8
 CH2OH           1.309-12
 CH3O            3.626-14
 CH4             1.0264-2
 CH3OH           5.1726-9
 *CN             6.553-14
 *CO             2.0733-1
 *CO2            3.0330-3
 COOH            7.319-12
 C2H2,acetylene  1.5675-7
 C2H2,vinylidene 3.636-14
 CH2CO,ketene    6.7209-8
 O(CH)2O         2.620-14
 C2H3,vinyl      2.829-12
 CH3CN           5.1092-7
 CH3CO,acetyl    6.876-12
 C2H4            1.9880-6
 C2H4O,ethylen-o 3.820-15
 CH3CHO,ethanal  2.2454-9
 CH3COOH         1.269-11
 C2H5            5.891-11
 C2H6            4.2995-7
 C2H5OH          2.500-12
 CH3OCH3         3.801-15
 OCCN            5.457-15
 C2N2            2.453-11
 C2O             6.298-16
 C3H3,2-propynl  1.760-12
 C3H4,allene     7.240-11
 C3H4,propyne    2.247-10
 C3H4,cyclo-     1.878-14
 C3H5,allyl      3.109-12
 C3H6,propylene  1.4903-9
 C3H6,cyclo-     1.674-12
 C3H6O,acetone   1.234-12
 C3H6O,propanal  2.375-13
 C3H7,n-propyl   7.195-15
 C3H7,i-propyl   8.733-15
 C3H8            5.730-11
 C3H8O,1propanol 3.135-16
 C3H8O,2propanol 4.459-16
 C3O2            1.979-12
 C4H2,butadiyne  2.875-14
 C4H6,butadiene  1.710-12
 C4H6,1butyne    3.192-14
 C4H6,2butyne    5.485-14
 C4H6,cyclo-     1.074-15
 C4H8,1-butene   1.860-13
 C4H8,cis2-buten 1.061-13
 C4H8,tr2-butene 1.199-13
 C4H8,isobutene  1.571-13
 C4H10,n-butane  7.633-15
 C4H10,isobutane 3.212-15
 C5H6,1,3cyclo-  2.316-14
 C5H8,cyclo-     3.409-16
 C6H6            6.330-13
 C7H8            7.032-16
 *H              1.5319-7
 HCN             8.2170-5
 HCO             1.5981-9
 HCCO            6.622-14
 HNC             5.2411-7
 HNCO            6.3246-7
 HNO             1.639-16
 *H2             3.1653-1
 HCHO,formaldehy 3.8101-7
 HCOOH           1.2837-8
 H2O             7.9890-3
 NCO             5.275-14
 *NH             1.422-14
 NH2             1.898-10
 NH3             1.8070-4
 NH2OH           4.545-16
 *NO             3.115-13
 *N2             4.1628-1
 N2H2            4.815-15
 N2H4            9.047-16
 *OH             5.852-11
 C(gr)           3.8304-2

  * THERMODYNAMIC PROPERTIES FITTED TO 20000.K


                     DETONATION PROPERTIES OF AN IDEAL REACTING GAS
 CASE =                

             REACTANT                       MOLES         ENERGY      TEMP
                                                         KJ/KG-MOL      K
 FUEL        C3H8                         1.0000000   -104543.521    300.000
 OXIDANT     O2                           5.0000000        54.358    300.000
 OXIDANT     N2                          18.8095000        53.881    300.000

 O/F=    3.89445  %FUEL= 20.431321  R,EQ.RATIO= 4.000000  PHI,EQ.RATIO= 4.000000

 UNBURNED GAS

 P1, BAR           1.0000
 T1, K             300.00
 H1, KJ/KG        -482.90
 M1, (1/n)         31.043
 GAMMA1            1.3045
 SON VEL1,M/SEC     323.8

 BURNED GAS

 P, BAR            11.641
 T, K             1279.97
 RHO, KG/CU M    2.1590 0
 H, KJ/KG          191.05
 U, KJ/KG         -348.14
 G, KJ/KG        -13317.1
 S, KJ/(KG)(K)    10.5535

 M, (1/n)          19.738
 MW, MOL WT        18.859
 (dLV/dLP)t      -1.02117
 (dLV/dLT)p        1.2354
 Cp, KJ/(KG)(K)    2.9582
 GAMMAs            1.2441
 SON VEL,M/SEC      819.0

 DETONATION PARAMETERS

 P/P1              11.641
 T/T1               4.267
 M/M1              0.6358
 RHO/RHO1          1.7348
 DET MACH NUMBER   4.3886
 DET VEL,M/SEC     1420.8

 MOLE FRACTIONS

 CH2             2.568-14
 CH3             9.0164-8
 CH2OH           1.217-12
 CH3O            3.282-14
 CH4             1.1143-2
 CH3OH           5.5800-9
 *CN             4.668-14
 *CO             2.0307-1
 *CO2            3.3149-3
 COOH            7.020-12
 C2H2,acetylene  1.3301-7
 C2H2,vinylidene 2.687-14
 CH2CO,ketene    6.3575-8
 O(CH)2O         2.520-14
 C2H3,vinyl      2.298-12
 CH3CN           4.9222-7
 CH3CO,acetyl    6.352-12
 C2H4            1.9606-6
 C2H4O,ethylen-o 3.677-15
 CH3CHO,ethanal  2.3562-9
 CH3COOH         1.463-11
 C2H5            5.562-11
 C2H6            4.7664-7
 C2H5OH          2.796-12
 CH3OCH3         4.098-15
 OCCN            4.161-15
 C2N2            1.910-11
 C2O             4.539-16
 C3H3,2-propynl  1.389-12
 C3H4,allene     6.413-11
 C3H4,propyne    2.000-10
 C3H4,cyclo-     1.560-14
 C3H5,allyl      2.825-12
 C3H6,propylene  1.5256-9
 C3H6,cyclo-     1.670-12
 C3H6O,acetone   1.365-12
 C3H6O,propanal  2.554-13
 C3H7,n-propyl   6.967-15
 C3H7,i-propyl   8.532-15
 C3H8            6.528-11
 C3H8O,1propanol 3.609-16
 C3H8O,2propanol 5.185-16
 C3O2            1.719-12
 C4H2,butadiyne  2.057-14
 C4H6,butadiene  1.624-12
 C4H6,1butyne    2.919-14
 C4H6,2butyne    5.106-14
 C4H6,cyclo-     9.910-16
 C4H8,1-butene   1.957-13
 C4H8,cis2-buten 1.125-13
 C4H8,tr2-butene 1.272-13
 C4H8,isobutene  1.674-13
 C4H10,n-butane  8.930-15
 C4H10,isobutane 3.782-15
 C5H6,1,3cyclo-  2.170-14
 C5H8,cyclo-     3.497-16
 C6H6            6.177-13
 C7H8            7.128-16
 *H              1.2941-7
 HCN             7.4128-5
 HCO             1.4028-9
 HCCO            5.237-14
 HNC             4.5088-7
 HNCO            6.2275-7
 HNO             1.366-16
 *H2             3.1816-1
 HCHO,formaldehy 3.7792-7
 HCOOH           1.4014-8
 H2O             8.7455-3
 NCO             4.265-14
 *NH             1.081-14
 NH2             1.651-10
 NH3             1.8938-4
 NH2OH           4.294-16
 *NO             2.598-13
 *N2             4.1076-1
 N2H2            4.101-15
 N2H4            8.512-16
 *OH             5.139-11
 C(gr)           4.4527-2

  * THERMODYNAMIC PROPERTIES FITTED TO 20000.K



