
 *******************************************************************************

         NASA-GLENN CHEMICAL EQUILIBRIUM PROGRAM CEA2, MAY 21, 2004
                   BY  BONNIE MCBRIDE AND SANFORD GORDON
      REFS: NASA RP-1311, PART I, 1994 AND NASA RP-1311, PART II, 1996

 *******************************************************************************



 problem    phi,eq.ratio=3.7,3.8,3.9,4,
       det   t,k=300,  p,bar=1,
 react
   fuel=C8H18,isooctane moles=1 t,k=300
   oxid=O2 moles=12.5 t,k=300
 output
      trace=1e-16 siunits short
 end


                     DETONATION PROPERTIES OF AN IDEAL REACTING GAS
 CASE =                

             REACTANT                       MOLES         ENERGY      TEMP
                                                         KJ/KG-MOL      K
 FUEL        C8H18,isooctane              1.0000000   -223660.458    300.000
 OXIDANT     O2                          12.5000000        54.358    300.000

 O/F=    0.94638  %FUEL= 51.377321  R,EQ.RATIO= 3.700000  PHI,EQ.RATIO= 3.700000

 UNBURNED GAS

 P1, BAR           1.0000
 T1, K             300.00
 H1, KJ/KG       -1005.15
 M1, (1/n)         50.780
 GAMMA1            1.1443
 SON VEL1,M/SEC     237.1

 BURNED GAS

 P, BAR            40.961
 T, K             1951.86
 RHO, KG/CU M    3.5901 0
 H, KJ/KG          532.86
 U, KJ/KG         -608.08
 G, KJ/KG        -26498.3
 S, KJ/(KG)(K)    13.8489

 M, (1/n)          14.224
 MW, MOL WT        13.244
 (dLV/dLP)t      -1.00787
 (dLV/dLT)p        1.0477
 Cp, KJ/(KG)(K)    2.8486
 GAMMAs            1.2777
 SON VEL,M/SEC     1207.4

 DETONATION PARAMETERS

 P/P1              40.961
 T/T1               6.506
 M/M1              0.2801
 RHO/RHO1          1.7635
 DET MACH NUMBER   8.9812
 DET VEL,M/SEC     2129.3

 MOLE FRACTIONS

 *C              2.388-13
 *CH             7.402-12
 CH2             1.0075-8
 CH3             2.8677-5
 CH2OH           5.647-10
 CH3O            5.161-11
 CH4             5.9400-3
 CH3OH           1.3566-8
 *CO             4.0070-1
 *CO2            2.2930-4
 COOH            3.733-10
 *C2             1.541-14
 C2H             1.1199-9
 C2H2,acetylene  2.9035-4
 C2H2,vinylidene 2.0539-8
 CH2CO,ketene    4.8498-6
 O(CH)2O         3.557-12
 C2H3,vinyl      9.3305-8
 CH3CO,acetyl    4.0397-9
 C2H4            6.0153-5
 C2H4O,ethylen-o 1.208-12
 CH3CHO,ethanal  1.8780-8
 CH3COOH         8.385-12
 C2H5            3.2134-8
 C2H6            8.7215-7
 C2H5OH          1.274-11
 CH3OCH3         9.109-14
 C2O             4.385-10
 *C3             1.868-13
 C3H3,1-propynl  3.040-11
 C3H3,2-propynl  1.8898-7
 C3H4,allene     1.9251-7
 C3H4,propyne    4.8013-7
 C3H4,cyclo-     7.354-10
 C3H5,allyl      8.6579-9
 C3H6,propylene  8.3297-8
 C3H6,cyclo-     2.817-10
 C3H6O,propylox  1.294-15
 C3H6O,acetone   1.013-11
 C3H6O,propanal  6.323-12
 C3H7,n-propyl   1.197-11
 C3H7,i-propyl   9.922-12
 C3H8            3.283-10
 C3H8O,1propanol 4.220-15
 C3H8O,2propanol 4.021-15
 C3O2            2.1297-9
 C4H2,butadiyne  6.4178-8
 C4H4,1,3-cyclo- 1.259-12
 C4H6,butadiene  2.2761-9
 C4H6,1butyne    1.967-10
 C4H6,2butyne    1.582-10
 C4H6,cyclo-     4.779-12
 C4H8,1-butene   2.900-11
 C4H8,cis2-buten 1.167-11
 C4H8,tr2-butene 1.311-11
 C4H8,isobutene  1.443-11
 C4H8,cyclo-     1.416-14
 C4H9,n-butyl    9.714-15
 C4H9,i-butyl    5.349-15
 C4H9,s-butyl    6.363-15
 C4H9,t-butyl    1.411-15
 C4H10,n-butane  1.278-13
 C4H10,isobutane 4.128-14
 C5H6,1,3cyclo-  5.338-11
 C5H8,cyclo-     1.583-13
 C5H10,1-pentene 8.285-15
 C5H10,cyclo-    1.190-16
 C6H2            1.497-11
 C6H5,phenyl     5.136-13
 C6H5O,phenoxy   8.285-16
 C6H6            2.636-10
 C6H5OH,phenol   2.012-14
 C7H7,benzyl     7.752-14
 C7H8            5.225-13
 C8H8,styrene    2.478-14
 C8H10,ethylbenz 2.137-16
 C10H8,naphthale 1.124-15
 *H              1.2679-4
 HCO             8.8070-7
 HCCO            2.8010-9
 *H2             5.2238-1
 HCHO,formaldehy 3.8236-6
 HCOOH           9.3319-9
 H2O             1.3162-3
 H2O2            1.047-15
 *O              5.206-12
 *OH             3.2988-8
 *O2             5.685-15
 C(gr)           6.8922-2

  * THERMODYNAMIC PROPERTIES FITTED TO 20000.K


                     DETONATION PROPERTIES OF AN IDEAL REACTING GAS
 CASE =                

             REACTANT                       MOLES         ENERGY      TEMP
                                                         KJ/KG-MOL      K
 FUEL        C8H18,isooctane              1.0000000   -223660.458    300.000
 OXIDANT     O2                          12.5000000        54.358    300.000

 O/F=    0.92148  %FUEL= 52.043237  R,EQ.RATIO= 3.800000  PHI,EQ.RATIO= 3.800000

 UNBURNED GAS

 P1, BAR           1.0000
 T1, K             300.00
 H1, KJ/KG       -1018.20
 M1, (1/n)         51.169
 GAMMA1            1.1424
 SON VEL1,M/SEC     236.0

 BURNED GAS

 P, BAR            40.358
 T, K             1907.32
 RHO, KG/CU M    3.6187 0
 H, KJ/KG          484.91
 U, KJ/KG         -630.35
 G, KJ/KG        -25862.6
 S, KJ/(KG)(K)    13.8139

 M, (1/n)          14.220
 MW, MOL WT        13.092
 (dLV/dLP)t      -1.00897
 (dLV/dLT)p        1.0559
 Cp, KJ/(KG)(K)    2.8905
 GAMMAs            1.2764
 SON VEL,M/SEC     1193.1

 DETONATION PARAMETERS

 P/P1              40.358
 T/T1               6.358
 M/M1              0.2779
 RHO/RHO1          1.7640
 DET MACH NUMBER   8.9188
 DET VEL,M/SEC     2104.7

 MOLE FRACTIONS

 *C              8.544-14
 *CH             3.159-12
 CH2             5.8124-9
 CH3             2.3543-5
 CH2OH           4.811-10
 CH3O            4.149-11
 CH4             6.6950-3
 CH3OH           1.5119-8
 *CO             3.9031-1
 *CO2            2.7285-4
 COOH            3.429-10
 *C2             4.721-15
 C2H             4.997-10
 C2H2,acetylene  2.1089-4
 C2H2,vinylidene 1.1526-8
 CH2CO,ketene    4.3152-6
 O(CH)2O         3.242-12
 C2H3,vinyl      6.1796-8
 CH3CO,acetyl    3.3855-9
 C2H4            5.6793-5
 C2H4O,ethylen-o 1.080-12
 CH3CHO,ethanal  1.9847-8
 CH3COOH         1.047-11
 C2H5            2.7614-8
 C2H6            1.0027-6
 C2H5OH          1.483-11
 CH3OCH3         9.880-14
 C2O             2.383-10
 *C3             5.754-14
 C3H3,1-propynl  1.630-11
 C3H3,2-propynl  1.1861-7
 C3H4,allene     1.4825-7
 C3H4,propyne    3.7358-7
 C3H4,cyclo-     5.010-10
 C3H5,allyl      6.8958-9
 C3H6,propylene  8.2374-8
 C3H6,cyclo-     2.645-10
 C3H6O,propylox  1.224-15
 C3H6O,acetone   1.154-11
 C3H6O,propanal  6.824-12
 C3H7,n-propyl   1.053-11
 C3H7,i-propyl   8.887-12
 C3H8            3.876-10
 C3H8O,1propanol 5.062-15
 C3H8O,2propanol 4.908-15
 C3O2            1.6410-9
 C4H2,butadiyne  3.3791-8
 C4H4,1,3-cyclo- 7.347-13
 C4H6,butadiene  1.9403-9
 C4H6,1butyne    1.570-10
 C4H6,2butyne    1.308-10
 C4H6,cyclo-     3.865-12
 C4H8,1-butene   2.948-11
 C4H8,cis2-buten 1.206-11
 C4H8,tr2-butene 1.355-11
 C4H8,isobutene  1.503-11
 C4H8,cyclo-     1.380-14
 C4H9,n-butyl    8.927-15
 C4H9,i-butyl    4.974-15
 C4H9,s-butyl    5.865-15
 C4H9,t-butyl    1.351-15
 C4H10,n-butane  1.547-13
 C4H10,isobutane 5.056-14
 C5H6,1,3cyclo-  4.451-11
 C5H8,cyclo-     1.527-13
 C5H10,1-pentene 8.686-15
 C5H10,cyclo-    1.350-16
 C6H2            5.719-12
 C6H5,phenyl     3.213-13
 C6H5O,phenoxy   6.375-16
 C6H6            2.378-10
 C6H5OH,phenol   1.904-14
 C7H7,benzyl     5.749-14
 C7H8            4.946-13
 C8H8,styrene    2.023-14
 C8H10,ethylbenz 2.071-16
 C10H8,naphthale 9.143-16
 *H              9.1594-5
 HCO             6.8833-7
 HCCO            1.7965-9
 *H2             5.2147-1
 HCHO,formaldehy 3.7202-6
 HCOOH           1.0765-8
 H2O             1.5438-3
 H2O2            8.580-16
 *O              2.963-12
 *OH             2.5697-8
 *O2             3.823-15
 C(gr)           7.9315-2

  * THERMODYNAMIC PROPERTIES FITTED TO 20000.K


                     DETONATION PROPERTIES OF AN IDEAL REACTING GAS
 CASE =                

             REACTANT                       MOLES         ENERGY      TEMP
                                                         KJ/KG-MOL      K
 FUEL        C8H18,isooctane              1.0000000   -223660.458    300.000
 OXIDANT     O2                          12.5000000        54.358    300.000

 O/F=    0.89785  %FUEL= 52.691160  R,EQ.RATIO= 3.900000  PHI,EQ.RATIO= 3.900000

 UNBURNED GAS

 P1, BAR           1.0000
 T1, K             300.00
 H1, KJ/KG       -1030.89
 M1, (1/n)         51.553
 GAMMA1            1.1406
 SON VEL1,M/SEC     234.9

 BURNED GAS

 P, BAR            39.789
 T, K             1865.36
 RHO, KG/CU M    3.6475 0
 H, KJ/KG          439.22
 U, KJ/KG         -651.64
 G, KJ/KG        -25262.9
 S, KJ/(KG)(K)    13.7786

 M, (1/n)          14.218
 MW, MOL WT        12.951
 (dLV/dLP)t      -1.01022
 (dLV/dLT)p        1.0654
 Cp, KJ/(KG)(K)    2.9414
 GAMMAs            1.2747
 SON VEL,M/SEC     1179.2

 DETONATION PARAMETERS

 P/P1              39.789
 T/T1               6.218
 M/M1              0.2758
 RHO/RHO1          1.7648
 DET MACH NUMBER   8.8586
 DET VEL,M/SEC     2081.0

 MOLE FRACTIONS

 *C              3.101-14
 *CH             1.364-12
 CH2             3.3777-9
 CH3             1.9373-5
 CH2OH           4.110-10
 CH3O            3.348-11
 CH4             7.5332-3
 CH3OH           1.6832-8
 *CO             3.8047-1
 *CO2            3.2438-4
 COOH            3.158-10
 *C2             1.469-15
 C2H             2.255-10
 C2H2,acetylene  1.5380-4
 C2H2,vinylidene 6.5169-9
 CH2CO,ketene    3.8476-6
 O(CH)2O         2.963-12
 C2H3,vinyl      4.1142-8
 CH3CO,acetyl    2.8463-9
 C2H4            5.3640-5
 C2H4O,ethylen-o 9.684-13
 CH3CHO,ethanal  2.0970-8
 CH3COOH         1.305-11
 C2H5            2.3770-8
 C2H6            1.1501-6
 C2H5OH          1.723-11
 CH3OCH3         1.071-13
 C2O             1.307-10
 *C3             1.800-14
 C3H3,1-propynl  8.810-12
 C3H3,2-propynl  7.4892-8
 C3H4,allene     1.1454-7
 C3H4,propyne    2.9156-7
 C3H4,cyclo-     3.430-10
 C3H5,allyl      5.5086-9
 C3H6,propylene  8.1443-8
 C3H6,cyclo-     2.485-10
 C3H6O,propylox  1.159-15
 C3H6O,acetone   1.314-11
 C3H6O,propanal  7.362-12
 C3H7,n-propyl   9.277-12
 C3H7,i-propyl   7.968-12
 C3H8            4.565-10
 C3H8O,1propanol 6.062-15
 C3H8O,2propanol 5.980-15
 C3O2            1.2710-9
 C4H2,butadiyne  1.7943-8
 C4H4,1,3-cyclo- 4.317-13
 C4H6,butadiene  1.6583-9
 C4H6,1butyne    1.257-10
 C4H6,2butyne    1.084-10
 C4H6,cyclo-     3.135-12
 C4H8,1-butene   2.994-11
 C4H8,cis2-buten 1.245-11
 C4H8,tr2-butene 1.398-11
 C4H8,isobutene  1.563-11
 C4H8,cyclo-     1.345-14
 C4H9,n-butyl    8.212-15
 C4H9,i-butyl    4.630-15
 C4H9,s-butyl    5.410-15
 C4H9,t-butyl    1.294-15
 C4H10,n-butane  1.867-13
 C4H10,isobutane 6.174-14
 C5H6,1,3cyclo-  3.719-11
 C5H8,cyclo-     1.475-13
 C5H10,1-pentene 9.097-15
 C5H10,cyclo-    1.529-16
 C6H2            2.214-12
 C6H5,phenyl     2.023-13
 C6H5O,phenoxy   4.927-16
 C6H6            2.147-10
 C6H5OH,phenol   1.805-14
 C7H7,benzyl     4.282-14
 C7H8            4.684-13
 C8H8,styrene    1.656-14
 C8H10,ethylbenz 2.007-16
 C10H8,naphthale 7.456-16
 *H              6.6479-5
 HCO             5.4007-7
 HCCO            1.1600-9
 *H2             5.2043-1
 HCHO,formaldehy 3.6228-6
 HCOOH           1.2415-8
 H2O             1.8077-3
 H2O2            7.064-16
 *O              1.701-12
 *OH             2.0102-8
 *O2             2.590-15
 C(gr)           8.9125-2

  * THERMODYNAMIC PROPERTIES FITTED TO 20000.K


                     DETONATION PROPERTIES OF AN IDEAL REACTING GAS
 CASE =                

             REACTANT                       MOLES         ENERGY      TEMP
                                                         KJ/KG-MOL      K
 FUEL        C8H18,isooctane              1.0000000   -223660.458    300.000
 OXIDANT     O2                          12.5000000        54.358    300.000

 O/F=    0.87541  %FUEL= 53.321808  R,EQ.RATIO= 4.000000  PHI,EQ.RATIO= 4.000000

 UNBURNED GAS

 P1, BAR           1.0000
 T1, K             300.00
 H1, KJ/KG       -1043.25
 M1, (1/n)         51.933
 GAMMA1            1.1388
 SON VEL1,M/SEC     233.9

 BURNED GAS

 P, BAR            39.256
 T, K             1825.93
 RHO, KG/CU M    3.6766 0
 H, KJ/KG          395.71
 U, KJ/KG         -672.01
 G, KJ/KG        -24698.3
 S, KJ/(KG)(K)    13.7431

 M, (1/n)          14.219
 MW, MOL WT        12.820
 (dLV/dLP)t      -1.01162
 (dLV/dLT)p        1.0764
 Cp, KJ/(KG)(K)    3.0016
 GAMMAs            1.2725
 SON VEL,M/SEC     1165.6

 DETONATION PARAMETERS

 P/P1              39.256
 T/T1               6.086
 M/M1              0.2738
 RHO/RHO1          1.7659
 DET MACH NUMBER   8.8007
 DET VEL,M/SEC     2058.3

 MOLE FRACTIONS

 *C              1.146-14
 *CH             5.976-13
 CH2             1.9813-9
 CH3             1.5989-5
 CH2OH           3.522-10
 CH3O            2.714-11
 CH4             8.4576-3
 CH3OH           1.8710-8
 *CO             3.7112-1
 *CO2            3.8490-4
 COOH            2.917-10
 *C2             4.667-16
 C2H             1.032-10
 C2H2,acetylene  1.1276-4
 C2H2,vinylidene 3.7202-9
 CH2CO,ketene    3.4386-6
 O(CH)2O         2.716-12
 C2H3,vinyl      2.7578-8
 CH3CO,acetyl    2.4016-9
 C2H4            5.0692-5
 C2H4O,ethylen-o 8.702-13
 CH3CHO,ethanal  2.2144-8
 CH3COOH         1.623-11
 OHCH2COOH       1.138-16
 C2H5            2.0507-8
 C2H6            1.3155-6
 C2H5OH          1.998-11
 CH3OCH3         1.160-13
 C2O             7.251-11
 *C3             5.745-15
 C3H3,1-propynl  4.812-12
 C3H3,2-propynl  4.7653-8
 C3H4,allene     8.8868-8
 C3H4,propyne    2.2846-7
 C3H4,cyclo-     2.363-10
 C3H5,allyl      4.4172-9
 C3H6,propylene  8.0510-8
 C3H6,cyclo-     2.337-10
 C3H6O,propylox  1.100-15
 C3H6O,acetone   1.493-11
 C3H6O,propanal  7.935-12
 C3H7,n-propyl   8.188-12
 C3H7,i-propyl   7.156-12
 C3H8            5.359-10
 C3H8O,1propanol 7.238-15
 C3H8O,2propanol 7.263-15
 C3O2            9.901-10
 C4H2,butadiyne  9.6317-9
 C4H4,1,3-cyclo- 2.560-13
 C4H6,butadiene  1.4218-9
 C4H6,1butyne    1.010-10
 C4H6,2butyne    9.009-11
 C4H6,cyclo-     2.552-12
 C4H8,1-butene   3.040-11
 C4H8,cis2-buten 1.284-11
 C4H8,tr2-butene 1.442-11
 C4H8,isobutene  1.625-11
 C4H8,cyclo-     1.312-14
 C4H9,n-butyl    7.564-15
 C4H9,i-butyl    4.313-15
 C4H9,s-butyl    4.996-15
 C4H9,t-butyl    1.240-15
 C4H10,n-butane  2.246-13
 C4H10,isobutane 7.512-14
 C5H6,1,3cyclo-  3.117-11
 C5H8,cyclo-     1.425-13
 C5H10,1-pentene 9.516-15
 C5H10,cyclo-    1.728-16
 C6H2            8.711-13
 C6H5,phenyl     1.283-13
 C6H5O,phenoxy   3.829-16
 C6H6            1.942-10
 C6H5OH,phenol   1.713-14
 C7H7,benzyl     3.205-14
 C7H8            4.439-13
 C8H8,styrene    1.360-14
 C8H10,ethylbenz 1.947-16
 C10H8,naphthale 6.101-16
 *H              4.8533-5
 HCO             4.2570-7
 HCCO            7.551-10
 *H2             5.1927-1
 HCHO,formaldehy 3.5307-6
 HCOOH           1.4304-8
 H2O             2.1115-3
 H2O2            5.844-16
 *O              9.875-13
 *OH             1.5804-8
 *O2             1.769-15
 C(gr)           9.8411-2

  * THERMODYNAMIC PROPERTIES FITTED TO 20000.K



