
 *******************************************************************************

         NASA-GLENN CHEMICAL EQUILIBRIUM PROGRAM CEA2, MAY 21, 2004
                   BY  BONNIE MCBRIDE AND SANFORD GORDON
      REFS: NASA RP-1311, PART I, 1994 AND NASA RP-1311, PART II, 1996

 *******************************************************************************



 problem    phi,eq.ratio=0.5,0.6,0.7,0.8,0.9,1,1.1,1.2,1.3,1.4,1.5,1.6,1.7,1.8,1.
 9,2,
       det   t,k=300,  p,bar=1,
 react
   fuel=CH3OH moles=1 t,k=300
   oxid=O2 moles=1.5 t,k=300
   oxid=N2 moles=5.6429 t,k=300
 output
      trace=1e-16 siunits short
 end


                     DETONATION PROPERTIES OF AN IDEAL REACTING GAS
 CASE =                

             REACTANT                       MOLES         ENERGY      TEMP
                                                         KJ/KG-MOL      K
 FUEL        CH3OH                        1.0000000   -200858.418    300.000
 OXIDANT     O2                           1.5000000        54.358    300.000
 OXIDANT     N2                           5.6429000        53.881    300.000

 O/F=   12.86286  %FUEL=  7.213518  R,EQ.RATIO= 0.571429  PHI,EQ.RATIO= 0.500000

 UNBURNED GAS

 P1, BAR           1.0000
 T1, K             300.00
 H1, KJ/KG        -450.45
 M1, (1/n)         29.059
 GAMMA1            1.3806
 SON VEL1,M/SEC     344.2

 BURNED GAS

 P, BAR            12.425
 T, K             2073.97
 RHO, KG/CU M    2.0265 0
 H, KJ/KG          321.81
 U, KJ/KG         -291.35
 G, KJ/KG        -17911.2
 S, KJ/(KG)(K)     8.7914

 M, (1/n)          28.124
 (dLV/dLP)t      -1.00018
 (dLV/dLT)p        1.0060
 Cp, KJ/(KG)(K)    1.5265
 GAMMAs            1.2435
 SON VEL,M/SEC      873.2

 DETONATION PARAMETERS

 P/P1              12.425
 T/T1               6.913
 M/M1              0.9678
 RHO/RHO1          1.7394
 DET MACH NUMBER   4.4122
 DET VEL,M/SEC     1518.9

 MOLE FRACTIONS

 *CO             1.4172-4
 *CO2            6.3172-2
 COOH            1.1007-9
 *H              5.7377-6
 HCN             1.015-14
 HCO             3.026-12
 HNC             5.852-16
 HNCO            6.278-12
 HNO             5.5981-8
 HNO2            7.0178-7
 HNO3            4.234-10
 HO2             4.4307-6
 *H2             5.8217-5
 HCHO,formaldehy 4.219-14
 HCOOH           8.653-11
 H2O             1.2577-1
 H2O2            3.1846-7
 *N              6.041-10
 NCO             3.024-13
 *NH             7.263-11
 NH2             2.996-11
 NH3             8.371-11
 NH2OH           1.352-13
 *NO             5.8519-3
 NO2             2.1045-5
 NO3             7.777-11
 *N2             7.1161-1
 N2H2            2.408-15
 N2O             1.1004-6
 N2O3            2.887-12
 N2O4            4.150-16
 N3              1.055-14
 N3H             1.844-15
 *O              9.9333-5
 *OH             1.5877-3
 *O2             9.1674-2
 O3              7.9603-9

  * THERMODYNAMIC PROPERTIES FITTED TO 20000.K


                     DETONATION PROPERTIES OF AN IDEAL REACTING GAS
 CASE =                

             REACTANT                       MOLES         ENERGY      TEMP
                                                         KJ/KG-MOL      K
 FUEL        CH3OH                        1.0000000   -200858.418    300.000
 OXIDANT     O2                           1.5000000        54.358    300.000
 OXIDANT     N2                           5.6429000        53.881    300.000

 O/F=   10.71905  %FUEL=  8.533114  R,EQ.RATIO= 0.666667  PHI,EQ.RATIO= 0.600000

 UNBURNED GAS

 P1, BAR           1.0000
 T1, K             300.00
 H1, KJ/KG        -533.20
 M1, (1/n)         29.098
 GAMMA1            1.3775
 SON VEL1,M/SEC     343.6

 BURNED GAS

 P, BAR            13.941
 T, K             2285.87
 RHO, KG/CU M    2.0514 0
 H, KJ/KG          336.91
 U, KJ/KG         -342.69
 G, KJ/KG        -20189.8
 S, KJ/(KG)(K)     8.9798

 M, (1/n)          27.966
 (dLV/dLP)t      -1.00061
 (dLV/dLT)p        1.0180
 Cp, KJ/(KG)(K)    1.6793
 GAMMAs            1.2238
 SON VEL,M/SEC      912.0

 DETONATION PARAMETERS

 P/P1              13.941
 T/T1               7.620
 M/M1              0.9611
 RHO/RHO1          1.7585
 DET MACH NUMBER   4.6670
 DET VEL,M/SEC     1603.7

 MOLE FRACTIONS

 *CN             3.346-15
 *CO             7.9275-4
 *CO2            7.3685-2
 COOH            7.8284-9
 *H              4.0666-5
 HCN             5.747-13
 HCO             8.946-11
 HNC             4.625-14
 HNCO            8.463-11
 HNO             1.9677-7
 HNO2            8.7846-7
 HNO3            3.759-10
 HO2             8.2461-6
 *H2             2.8426-4
 HCHO,formaldehy 1.282-12
 HCOOH           6.144-10
 H2O             1.4680-1
 H2O2            6.2302-7
 *N              7.4668-9
 NCO             6.871-12
 *NH             1.0831-9
 NH2             4.129-10
 NH3             7.458-10
 NH2OH           1.161-12
 *NO             8.2564-3
 NO2             2.0391-5
 NO3             8.904-11
 *N2             6.9631-1
 N2H2            4.119-14
 NH2NO2          1.399-16
 N2O             1.6146-6
 N2O3            3.861-12
 N2O4            3.601-16
 N3              1.174-13
 N3H             2.212-14
 *O              3.2331-4
 *OH             3.6901-3
 *O2             6.9786-2
 O3              1.2571-8

  * THERMODYNAMIC PROPERTIES FITTED TO 20000.K


                     DETONATION PROPERTIES OF AN IDEAL REACTING GAS
 CASE =                

             REACTANT                       MOLES         ENERGY      TEMP
                                                         KJ/KG-MOL      K
 FUEL        CH3OH                        1.0000000   -200858.418    300.000
 OXIDANT     O2                           1.5000000        54.358    300.000
 OXIDANT     N2                           5.6429000        53.881    300.000

 O/F=    9.18776  %FUEL=  9.815702  R,EQ.RATIO= 0.756757  PHI,EQ.RATIO= 0.700000

 UNBURNED GAS

 P1, BAR           1.0000
 T1, K             300.00
 H1, KJ/KG        -613.62
 M1, (1/n)         29.135
 GAMMA1            1.3745
 SON VEL1,M/SEC     343.0

 BURNED GAS

 P, BAR            15.289
 T, K             2461.36
 RHO, KG/CU M    2.0754 0
 H, KJ/KG          342.28
 U, KJ/KG         -394.38
 G, KJ/KG        -22177.2
 S, KJ/(KG)(K)     9.1492

 M, (1/n)          27.781
 (dLV/dLP)t      -1.00158
 (dLV/dLT)p        1.0429
 Cp, KJ/(KG)(K)    1.9110
 GAMMAs            1.2030
 SON VEL,M/SEC      941.4

 DETONATION PARAMETERS

 P/P1              15.289
 T/T1               8.205
 M/M1              0.9535
 RHO/RHO1          1.7769
 DET MACH NUMBER   4.8762
 DET VEL,M/SEC     1672.7

 MOLE FRACTIONS

 CH2OH           1.900-16
 *CN             1.107-13
 *CO             2.8177-3
 *CO2            8.2286-2
 COOH            3.2375-8
 *H              1.6565-4
 HCN             1.161-11
 HCO             1.0669-9
 HNC             1.178-12
 HNCO            5.868-10
 HNO             4.6243-7
 HNO2            9.3558-7
 HNO3            2.951-10
 HO2             1.1524-5
 *H2             9.3398-4
 HCHO,formaldehy 1.638-11
 HCOOH           2.6735-9
 H2O             1.6597-1
 H2O2            9.4587-7
 *N              4.2846-8
 NCO             6.539-11
 *NH             7.4192-9
 NH2             2.8103-9
 NH3             3.9301-9
 NH2OH           5.603-12
 *NO             9.7172-3
 NO2             1.7289-5
 NO3             7.949-11
 *N2             6.8117-1
 N2H2            3.299-13
 NH2NO2          3.693-16
 N2O             1.9675-6
 N2O3            3.857-12
 N2O4            2.496-16
 N3              6.313-13
 N3H             1.314-13
 *O              6.8110-4
 *OH             6.4312-3
 *O2             4.9792-2
 O3              1.4123-8

  * THERMODYNAMIC PROPERTIES FITTED TO 20000.K


                     DETONATION PROPERTIES OF AN IDEAL REACTING GAS
 CASE =                

             REACTANT                       MOLES         ENERGY      TEMP
                                                         KJ/KG-MOL      K
 FUEL        CH3OH                        1.0000000   -200858.418    300.000
 OXIDANT     O2                           1.5000000        54.358    300.000
 OXIDANT     N2                           5.6429000        53.881    300.000

 O/F=    8.03929  %FUEL= 11.062817  R,EQ.RATIO= 0.842105  PHI,EQ.RATIO= 0.800000

 UNBURNED GAS

 P1, BAR           1.0000
 T1, K             300.00
 H1, KJ/KG        -691.82
 M1, (1/n)         29.172
 GAMMA1            1.3716
 SON VEL1,M/SEC     342.5

 BURNED GAS

 P, BAR            16.444
 T, K             2597.97
 RHO, KG/CU M    2.0976 0
 H, KJ/KG          336.58
 U, KJ/KG         -447.37
 G, KJ/KG        -23833.3
 S, KJ/(KG)(K)     9.3034

 M, (1/n)          27.554
 (dLV/dLP)t      -1.00326
 (dLV/dLT)p        1.0834
 Cp, KJ/(KG)(K)    2.2370
 GAMMAs            1.1835
 SON VEL,M/SEC      963.2

 DETONATION PARAMETERS

 P/P1              16.444
 T/T1               8.660
 M/M1              0.9445
 RHO/RHO1          1.7935
 DET MACH NUMBER   5.0447
 DET VEL,M/SEC     1727.6

 MOLE FRACTIONS

 *C              1.083-15
 *CH             2.049-16
 CH2             4.429-16
 CH3             1.182-15
 CH2OH           2.716-15
 CH3O            4.793-16
 CH4             3.525-16
 CH3OH           1.527-16
 *CN             1.435-12
 *CO             7.2447-3
 *CO2            8.7888-2
 COOH            8.9668-8
 HO(CO)2OH       1.445-16
 C2O             1.170-16
 *H              4.5461-4
 HCN             1.136-10
 HCO             6.6517-9
 HNC             1.352-11
 HNCO            2.5307-9
 HNO             8.0097-7
 HNO2            8.6142-7
 HNO3            2.022-10
 HO2             1.2751-5
 *H2             2.3371-3
 HCHO,formaldehy 1.134-10
 HCOOH           8.1264-9
 H2O             1.8318-1
 H2O2            1.1717-6
 *N              1.4074-7
 NCO             3.313-10
 *NH             2.9077-8
 NH2             1.1604-8
 NH3             1.4413-8
 NH2OH           1.778-11
 *NO             9.8675-3
 NO2             1.2864-5
 NO3             5.621-11
 *N2             6.6609-1
 N2H2            1.533-12
 NH2NO2          6.732-16
 N2O             2.0540-6
 N2O3            2.951-12
 N2O4            1.365-16
 N3              1.990-12
 N3H             4.695-13
 *O              1.0302-3
 *OH             9.0250-3
 *O2             3.2850-2
 O3              1.1750-8

  * THERMODYNAMIC PROPERTIES FITTED TO 20000.K


                     DETONATION PROPERTIES OF AN IDEAL REACTING GAS
 CASE =                

             REACTANT                       MOLES         ENERGY      TEMP
                                                         KJ/KG-MOL      K
 FUEL        CH3OH                        1.0000000   -200858.418    300.000
 OXIDANT     O2                           1.5000000        54.358    300.000
 OXIDANT     N2                           5.6429000        53.881    300.000

 O/F=    7.14603  %FUEL= 12.275912  R,EQ.RATIO= 0.923077  PHI,EQ.RATIO= 0.900000

 UNBURNED GAS

 P1, BAR           1.0000
 T1, K             300.00
 H1, KJ/KG        -767.89
 M1, (1/n)         29.207
 GAMMA1            1.3688
 SON VEL1,M/SEC     341.9

 BURNED GAS

 P, BAR            17.372
 T, K             2694.99
 RHO, KG/CU M    2.1150 0
 H, KJ/KG          318.26
 U, KJ/KG         -503.11
 G, KJ/KG        -25135.7
 S, KJ/(KG)(K)     9.4449

 M, (1/n)          27.281
 (dLV/dLP)t      -1.00534
 (dLV/dLT)p        1.1317
 Cp, KJ/(KG)(K)    2.6055
 GAMMAs            1.1689
 SON VEL,M/SEC      979.8

 DETONATION PARAMETERS

 P/P1              17.372
 T/T1               8.983
 M/M1              0.9340
 RHO/RHO1          1.8063
 DET MACH NUMBER   5.1764
 DET VEL,M/SEC     1769.9

 MOLE FRACTIONS

 *C              1.114-14
 *CH             2.535-15
 CH2             5.681-15
 CH3             1.488-14
 CH2OH           2.067-14
 CH3O            3.939-15
 CH4             4.603-15
 CH3OH           1.264-15
 *CN             9.336-12
 *CO             1.4687-2
 *CO2            8.9831-2
 COOH            1.8233-7
 CH2CO,ketene    1.761-16
 HO(CO)2OH       3.938-16
 OCCN            3.935-16
 C2O             1.544-15
 *H              9.3160-4
 HCN             6.611-10
 HCO             2.5692-8
 HNC             8.715-11
 HNCO            7.6998-9
 HNO             1.0856-6
 HNO2            6.8916-7
 HNO3            1.190-10
 HO2             1.1492-5
 *H2             4.8344-3
 HCHO,formaldehy 5.033-10
 HCOOH           1.8840-8
 H2O             1.9840-1
 H2O2            1.2185-6
 *N              3.0206-7
 NCO             1.0433-9
 *NH             7.5021-8
 NH2             3.3217-8
 NH3             4.0980-8
 NH2OH           4.106-11
 *NO             8.8016-3
 NO2             8.3559-6
 NO3             3.147-11
 *N2             6.5091-1
 NCN             7.024-16
 N2H2            4.747-12
 NH2NO2          9.009-16
 N2O             1.8671-6
 N2O3            1.739-12
 N3              4.158-12
 N3H             1.141-12
 *O              1.1909-3
 *OH             1.0650-2
 *O2             1.9735-2
 O3              7.3408-9

  * THERMODYNAMIC PROPERTIES FITTED TO 20000.K


                     DETONATION PROPERTIES OF AN IDEAL REACTING GAS
 CASE =                

             REACTANT                       MOLES         ENERGY      TEMP
                                                         KJ/KG-MOL      K
 FUEL        CH3OH                        1.0000000   -200858.418    300.000
 OXIDANT     O2                           1.5000000        54.358    300.000
 OXIDANT     N2                           5.6429000        53.881    300.000

 O/F=    6.43143  %FUEL= 13.456358  R,EQ.RATIO= 1.000000  PHI,EQ.RATIO= 1.000000

 UNBURNED GAS

 P1, BAR           1.0000
 T1, K             300.00
 H1, KJ/KG        -841.91
 M1, (1/n)         29.242
 GAMMA1            1.3662
 SON VEL1,M/SEC     341.4

 BURNED GAS

 P, BAR            18.049
 T, K             2753.68
 RHO, KG/CU M    2.1255 0
 H, KJ/KG          286.26
 U, KJ/KG         -562.89
 G, KJ/KG        -26081.9
 S, KJ/(KG)(K)     9.5756

 M, (1/n)          26.963
 (dLV/dLP)t      -1.00680
 (dLV/dLT)p        1.1646
 Cp, KJ/(KG)(K)    2.8632
 GAMMAs            1.1618
 SON VEL,M/SEC      993.2

 DETONATION PARAMETERS

 P/P1              18.049
 T/T1               9.179
 M/M1              0.9221
 RHO/RHO1          1.8130
 DET MACH NUMBER   5.2752
 DET VEL,M/SEC     1800.8

 MOLE FRACTIONS

 *C              5.659-14
 *CH             1.573-14
 CH2             3.953-14
 CH3             1.127-13
 CH2OH           9.969-14
 CH3O            1.986-14
 CH4             3.914-14
 CH3OH           7.029-15
 *CN             3.646-11
 *CO             2.5078-2
 *CO2            8.8156-2
 COOH            2.9117-7
 CH2CO,ketene    1.612-15
 HO(CO)2OH       7.976-16
 OCCN            2.469-15
 C2O             1.040-14
 *H              1.5316-3
 HCN             2.6616-9
 HCO             6.9652-8
 HCCO            6.744-16
 HNC             3.720-10
 HNCO            1.8187-8
 HNO             1.1954-6
 HNO2            4.7684-7
 HNO3            5.870-11
 HO2             8.5258-6
 *H2             8.7788-3
 HCHO,formaldehy 1.6233-9
 HCOOH           3.5643-8
 H2O             2.1149-1
 H2O2            1.0779-6
 *N              4.6309-7
 NCO             2.2873-9
 *NH             1.4037-7
 NH2             7.2477-8
 NH3             9.7890-8
 NH2OH           7.402-11
 *NO             6.9410-3
 NO2             4.6708-6
 NO3             1.373-11
 *N2             6.3549-1
 NCN             2.968-15
 N2H2            1.082-11
 NH2NO2          9.176-16
 N2H4            1.974-16
 N2O             1.4862-6
 N2O3            7.796-13
 N3              6.254-12
 N3H             2.056-12
 *O              1.0912-3
 *OH             1.0849-2
 *O2             1.0570-2
 O3              3.4213-9

  * THERMODYNAMIC PROPERTIES FITTED TO 20000.K


                     DETONATION PROPERTIES OF AN IDEAL REACTING GAS
 CASE =                

             REACTANT                       MOLES         ENERGY      TEMP
                                                         KJ/KG-MOL      K
 FUEL        CH3OH                        1.0000000   -200858.418    300.000
 OXIDANT     O2                           1.5000000        54.358    300.000
 OXIDANT     N2                           5.6429000        53.881    300.000

 O/F=    5.84676  %FUEL= 14.605458  R,EQ.RATIO= 1.073171  PHI,EQ.RATIO= 1.100000

 UNBURNED GAS

 P1, BAR           1.0000
 T1, K             300.00
 H1, KJ/KG        -913.96
 M1, (1/n)         29.276
 GAMMA1            1.3636
 SON VEL1,M/SEC     340.9

 BURNED GAS

 P, BAR            18.454
 T, K             2775.77
 RHO, KG/CU M    2.1274 0
 H, KJ/KG          239.81
 U, KJ/KG         -627.65
 G, KJ/KG        -26675.9
 S, KJ/(KG)(K)     9.6967

 M, (1/n)          26.606
 (dLV/dLP)t      -1.00654
 (dLV/dLT)p        1.1579
 Cp, KJ/(KG)(K)    2.8418
 GAMMAs            1.1640
 SON VEL,M/SEC     1004.9

 DETONATION PARAMETERS

 P/P1              18.454
 T/T1               9.253
 M/M1              0.9088
 RHO/RHO1          1.8125
 DET MACH NUMBER   5.3434
 DET VEL,M/SEC     1821.3

 MOLE FRACTIONS

 *C              1.653-13
 *CH             5.730-14
 CH2             1.742-13
 CH3             5.940-13
 CH2OH           3.427-13
 CH3O            6.938-14
 CH4             2.497-13
 CH3OH           2.953-14
 *CN             9.632-11
 *CO             3.7804-2
 *CO2            8.3470-2
 COOH            3.8202-7
 C2H2,acetylene  1.647-16
 CH2CO,ketene    9.817-15
 O(CH)2O         2.570-16
 HO(CO)2OH       1.273-15
 OCCN            9.698-15
 C2O             4.207-14
 *H              2.1128-3
 HCN             8.2470-9
 HCO             1.4420-7
 HCCO            3.412-15
 HNC             1.1775-9
 HNCO            3.5660-8
 HNO             1.0910-6
 HNO2            2.8233-7
 HNO3            2.361-11
 HO2             5.1993-6
 *H2             1.4565-2
 HCHO,formaldehy 4.1536-9
 HCOOH           5.7710-8
 H2O             2.2209-1
 H2O2            8.1310-7
 *N              5.3471-7
 NCO             3.7628-9
 *NH             2.0218-7
 NH2             1.2808-7
 NH3             2.0739-7
 NH2OH           1.088-10
 *NO             4.8334-3
 NO2             2.2055-6
 NO3             4.552-12
 *N2             6.1971-1
 NCN             8.036-15
 N2H2            1.936-11
 NH2NO2          7.230-16
 N2H4            5.734-16
 N2O             1.0343-6
 N2O3            2.601-13
 N3              7.113-12
 N3H             2.898-12
 *O              8.0600-4
 *OH             9.6607-3
 *O2             4.9337-3
 O3              1.1675-9

  * THERMODYNAMIC PROPERTIES FITTED TO 20000.K


                     DETONATION PROPERTIES OF AN IDEAL REACTING GAS
 CASE =                

             REACTANT                       MOLES         ENERGY      TEMP
                                                         KJ/KG-MOL      K
 FUEL        CH3OH                        1.0000000   -200858.418    300.000
 OXIDANT     O2                           1.5000000        54.358    300.000
 OXIDANT     N2                           5.6429000        53.881    300.000

 O/F=    5.35953  %FUEL= 15.724443  R,EQ.RATIO= 1.142857  PHI,EQ.RATIO= 1.200000

 UNBURNED GAS

 P1, BAR           1.0000
 T1, K             300.00
 H1, KJ/KG        -984.13
 M1, (1/n)         29.309
 GAMMA1            1.3612
 SON VEL1,M/SEC     340.4

 BURNED GAS

 P, BAR            18.599
 T, K             2764.37
 RHO, KG/CU M    2.1214 0
 H, KJ/KG          179.54
 U, KJ/KG         -697.18
 G, KJ/KG        -26935.9
 S, KJ/(KG)(K)     9.8089

 M, (1/n)          26.216
 (dLV/dLP)t      -1.00492
 (dLV/dLT)p        1.1194
 Cp, KJ/(KG)(K)    2.5851
 GAMMAs            1.1748
 SON VEL,M/SEC     1014.9

 DETONATION PARAMETERS

 P/P1              18.599
 T/T1               9.215
 M/M1              0.8945
 RHO/RHO1          1.8054
 DET MACH NUMBER   5.3835
 DET VEL,M/SEC     1832.3

 MOLE FRACTIONS

 *C              3.051-13
 *CH             1.350-13
 CH2             5.325-13
 CH3             2.368-12
 CH2OH           8.997-13
 CH3O            1.806-13
 CH4             1.291-12
 CH3OH           1.000-13
 *CN             1.854-10
 CNN             1.069-16
 *CO             5.1829-2
 *CO2            7.6826-2
 COOH            4.2526-7
 C2H2,acetylene  1.095-15
 CH2CO,ketene    4.385-14
 O(CH)2O         7.544-16
 HO(CO)2OH       1.672-15
 OCCN            2.627-14
 C2N2            3.213-16
 C2O             1.134-13
 C3O2            2.706-16
 *H              2.5124-3
 HCN             2.0910-8
 HCO             2.4020-7
 HCCO            1.172-14
 HNC             2.9531-9
 HNCO            6.0470-8
 HNO             8.3950-7
 HNO2            1.4344-7
 HNO3            7.736-12
 HO2             2.6282-6
 *H2             2.2529-2
 HCHO,formaldehy 8.8745-9
 HCOOH           8.2465-8
 H2O             2.2972-1
 H2O2            5.2699-7
 *N              4.8225-7
 NCO             4.8826-9
 *NH             2.3278-7
 NH2             1.8986-7
 NH3             4.0055-7
 NH2OH           1.340-10
 *NO             2.9884-3
 NO2             8.8012-7
 NO3             1.152-12
 *N2             6.0349-1
 NCN             1.512-14
 N2H2            2.823-11
 NH2NO2          4.490-16
 N2H4            1.333-15
 N2O             6.3324-7
 N2O3            6.493-14
 N3              6.336-12
 N3H             3.307-12
 *O              4.8836-4
 *OH             7.6047-3
 *O2             2.0007-3
 O3              2.940-10

  * THERMODYNAMIC PROPERTIES FITTED TO 20000.K


                     DETONATION PROPERTIES OF AN IDEAL REACTING GAS
 CASE =                

             REACTANT                       MOLES         ENERGY      TEMP
                                                         KJ/KG-MOL      K
 FUEL        CH3OH                        1.0000000   -200858.418    300.000
 OXIDANT     O2                           1.5000000        54.358    300.000
 OXIDANT     N2                           5.6429000        53.881    300.000

 O/F=    4.94725  %FUEL= 16.814481  R,EQ.RATIO= 1.209302  PHI,EQ.RATIO= 1.300000

 UNBURNED GAS

 P1, BAR           1.0000
 T1, K             300.00
 H1, KJ/KG       -1052.48
 M1, (1/n)         29.342
 GAMMA1            1.3588
 SON VEL1,M/SEC     339.9

 BURNED GAS

 P, BAR            18.552
 T, K             2726.84
 RHO, KG/CU M    2.1118 0
 H, KJ/KG          109.17
 U, KJ/KG         -769.35
 G, KJ/KG        -26922.5
 S, KJ/(KG)(K)     9.9132

 M, (1/n)          25.807
 (dLV/dLP)t      -1.00325
 (dLV/dLT)p        1.0794
 Cp, KJ/(KG)(K)    2.3068
 GAMMAs            1.1897
 SON VEL,M/SEC     1022.3

 DETONATION PARAMETERS

 P/P1              18.552
 T/T1               9.089
 M/M1              0.8795
 RHO/RHO1          1.7952
 DET MACH NUMBER   5.4001
 DET VEL,M/SEC     1835.3

 MOLE FRACTIONS

 *C              3.885-13
 *CH             2.227-13
 CH2             1.200-12
 CH3             7.434-12
 CH2OH           1.885-12
 CH3O            3.680-13
 CH4             5.531-12
 CH3OH           2.814-13
 *CN             2.756-10
 CNN             1.381-16
 *CO             6.5884-2
 *CO2            6.9543-2
 COOH            4.1616-7
 C2H2,acetylene  5.280-15
 CH2CO,ketene    1.513-13
 O(CH)2O         1.724-15
 HO(CO)2OH       1.891-15
 OCCN            5.270-14
 C2N2            9.827-16
 C2O             2.199-13
 C3O2            7.762-16
 *H              2.6410-3
 HCN             4.4796-8
 HCO             3.3524-7
 HCCO            2.935-14
 HNC             6.0978-9
 HNCO            9.1066-8
 HNO             5.6462-7
 HNO2            6.4961-8
 HNO3            2.178-12
 HO2             1.1513-6
 *H2             3.2677-2
 HCHO,formaldehy 1.6307-8
 HCOOH           1.0653-7
 H2O             2.3414-1
 H2O2            3.0352-7
 *N              3.5684-7
 NCO             5.2467-9
 *NH             2.2318-7
 NH2             2.4271-7
 NH3             7.1044-7
 NH2OH           1.426-10
 *NO             1.6887-3
 NO2             3.1037-7
 NO3             2.385-13
 *N2             5.8700-1
 NCN             2.116-14
 N2H2            3.473-11
 NH2NO2          2.316-16
 N2H4            2.559-15
 N2O             3.5195-7
 N2O3            1.308-14
 N3              4.645-12
 N3H             3.178-12
 *O              2.5376-4
 *OH             5.4301-3
 *O2             7.3253-4
 O3              5.902-11

  * THERMODYNAMIC PROPERTIES FITTED TO 20000.K


                     DETONATION PROPERTIES OF AN IDEAL REACTING GAS
 CASE =                

             REACTANT                       MOLES         ENERGY      TEMP
                                                         KJ/KG-MOL      K
 FUEL        CH3OH                        1.0000000   -200858.418    300.000
 OXIDANT     O2                           1.5000000        54.358    300.000
 OXIDANT     N2                           5.6429000        53.881    300.000

 O/F=    4.59388  %FUEL= 17.876682  R,EQ.RATIO= 1.272727  PHI,EQ.RATIO= 1.400000

 UNBURNED GAS

 P1, BAR           1.0000
 T1, K             300.00
 H1, KJ/KG       -1119.09
 M1, (1/n)         29.373
 GAMMA1            1.3565
 SON VEL1,M/SEC     339.4

 BURNED GAS

 P, BAR            18.406
 T, K             2673.36
 RHO, KG/CU M    2.1027 0
 H, KJ/KG          33.824
 U, KJ/KG         -841.49
 G, KJ/KG        -26727.6
 S, KJ/(KG)(K)    10.0104

 M, (1/n)          25.394
 (dLV/dLP)t      -1.00211
 (dLV/dLT)p        1.0519
 Cp, KJ/(KG)(K)    2.1141
 GAMMAs            1.2037
 SON VEL,M/SEC     1026.5

 DETONATION PARAMETERS

 P/P1              18.406
 T/T1               8.911
 M/M1              0.8645
 RHO/RHO1          1.7856
 DET MACH NUMBER   5.4003
 DET VEL,M/SEC     1832.9

 MOLE FRACTIONS

 *C              3.762-13
 *CH             2.798-13
 CH2             2.117-12
 CH3             1.894-11
 CH2OH           3.285-12
 CH3O            6.156-13
 CH4             1.977-11
 CH3OH           6.710-13
 *CN             3.367-10
 CNN             1.379-16
 *CO             7.8960-2
 *CO2            6.2716-2
 COOH            3.7310-7
 C2H             1.122-16
 C2H2,acetylene  1.931-14
 CH2CO,ketene    4.188-13
 O(CH)2O         3.229-15
 HO(CO)2OH       1.935-15
 CH3CO,acetyl    1.315-16
 OCCN            8.394-14
 C2N2            2.359-15
 C2O             3.319-13
 C3O2            1.748-15
 *H              2.5304-3
 HCN             8.3103-8
 HCO             4.0864-7
 HCCO            5.715-14
 HNC             1.0715-8
 HNCO            1.2471-7
 HNO             3.4912-7
 HNO2            2.7820-8
 HNO3            5.748-13
 HO2             4.6749-7
 *H2             4.4582-2
 HCHO,formaldehy 2.6424-8
 HCOOH           1.2747-7
 H2O             2.3568-1
 H2O2            1.6348-7
 *N              2.3089-7
 NCO             4.9302-9
 *NH             1.8747-7
 NH2             2.7608-7
 NH3             1.1604-6
 NH2OH           1.362-10
 *NO             9.1113-4
 NO2             1.0373-7
 NO3             4.517-14
 *N2             5.7059-1
 NCN             2.376-14
 N2H2            3.750-11
 NH2NO2          1.070-16
 N2H4            4.180-15
 N2O             1.8613-7
 N2O3            2.387-15
 N3              2.989-12
 N3H             2.701-12
 *O              1.2051-4
 *OH             3.6504-3
 *O2             2.5768-4
 O3              1.064-11

  * THERMODYNAMIC PROPERTIES FITTED TO 20000.K


                     DETONATION PROPERTIES OF AN IDEAL REACTING GAS
 CASE =                

             REACTANT                       MOLES         ENERGY      TEMP
                                                         KJ/KG-MOL      K
 FUEL        CH3OH                        1.0000000   -200858.418    300.000
 OXIDANT     O2                           1.5000000        54.358    300.000
 OXIDANT     N2                           5.6429000        53.881    300.000

 O/F=    4.28762  %FUEL= 18.912098  R,EQ.RATIO= 1.333333  PHI,EQ.RATIO= 1.500000

 UNBURNED GAS

 P1, BAR           1.0000
 T1, K             300.00
 H1, KJ/KG       -1184.01
 M1, (1/n)         29.404
 GAMMA1            1.3543
 SON VEL1,M/SEC     339.0

 BURNED GAS

 P, BAR            18.217
 T, K             2612.23
 RHO, KG/CU M    2.0959 0
 H, KJ/KG         -42.999
 U, KJ/KG         -912.20
 G, KJ/KG        -26430.5
 S, KJ/(KG)(K)    10.1015

 M, (1/n)          24.988
 (dLV/dLP)t      -1.00142
 (dLV/dLT)p        1.0350
 Cp, KJ/(KG)(K)    1.9986
 GAMMAs            1.2149
 SON VEL,M/SEC     1027.6

 DETONATION PARAMETERS

 P/P1              18.217
 T/T1               8.707
 M/M1              0.8498
 RHO/RHO1          1.7779
 DET MACH NUMBER   5.3902
 DET VEL,M/SEC     1827.0

 MOLE FRACTIONS

 *C              3.020-13
 *CH             2.895-13
 CH2             3.099-12
 CH3             4.062-11
 CH2OH           4.964-12
 CH3O            8.861-13
 CH4             6.000-11
 CH3OH           1.392-12
 *CN             3.577-10
 CNN             1.154-16
 *CO             9.0623-2
 *CO2            5.6861-2
 COOH            3.1720-7
 C2H             2.023-16
 C2H2,acetylene  5.630-14
 CH2CO,ketene    9.708-13
 O(CH)2O         5.206-15
 HO(CO)2OH       1.865-15
 CH3CO,acetyl    3.295-16
 OCCN            1.130-13
 C2N2            4.687-15
 C2O             4.182-13
 C3O2            3.280-15
 *H              2.2726-3
 HCN             1.3718-7
 HCO             4.5197-7
 HCCO            9.218-14
 HNC             1.6577-8
 HNCO            1.5888-7
 HNO             2.0675-7
 HNO2            1.1780-8
 HNO3            1.515-13
 HO2             1.8533-7
 *H2             5.7635-2
 HCHO,formaldehy 3.8769-8
 HCOOH           1.4445-7
 H2O             2.3500-1
 H2O2            8.5730-8
 *N              1.3780-7
 NCO             4.2442-9
 *NH             1.4422-7
 NH2             2.8801-7
 NH3             1.7604-6
 NH2OH           1.208-10
 *NO             4.8533-4
 NO2             3.4603-8
 NO3             8.482-15
 *N2             5.5459-1
 NCN             2.287-14
 N2H2            3.688-11
 N2H4            6.005-15
 N2O             9.7063-8
 N2O3            4.300-16
 N3              1.781-12
 N3H             2.118-12
 *O              5.5006-5
 *OH             2.3812-3
 *O2             9.1142-5
 O3              1.881-12

  * THERMODYNAMIC PROPERTIES FITTED TO 20000.K


                     DETONATION PROPERTIES OF AN IDEAL REACTING GAS
 CASE =                

             REACTANT                       MOLES         ENERGY      TEMP
                                                         KJ/KG-MOL      K
 FUEL        CH3OH                        1.0000000   -200858.418    300.000
 OXIDANT     O2                           1.5000000        54.358    300.000
 OXIDANT     N2                           5.6429000        53.881    300.000

 O/F=    4.01964  %FUEL= 19.921730  R,EQ.RATIO= 1.391304  PHI,EQ.RATIO= 1.600000

 UNBURNED GAS

 P1, BAR           1.0000
 T1, K             300.00
 H1, KJ/KG       -1247.32
 M1, (1/n)         29.434
 GAMMA1            1.3522
 SON VEL1,M/SEC     338.5

 BURNED GAS

 P, BAR            18.013
 T, K             2548.32
 RHO, KG/CU M    2.0909 0
 H, KJ/KG         -119.66
 U, KJ/KG         -981.12
 G, KJ/KG        -26079.9
 S, KJ/(KG)(K)    10.1872

 M, (1/n)          24.595
 (dLV/dLP)t      -1.00099
 (dLV/dLT)p        1.0244
 Cp, KJ/(KG)(K)    1.9310
 GAMMAs            1.2236
 SON VEL,M/SEC     1026.7

 DETONATION PARAMETERS

 P/P1              18.013
 T/T1               8.494
 M/M1              0.8356
 RHO/RHO1          1.7719
 DET MACH NUMBER   5.3740
 DET VEL,M/SEC     1819.2

 MOLE FRACTIONS

 *C              2.134-13
 *CH             2.610-13
 CH2             3.951-12
 CH3             7.603-11
 CH2OH           6.737-12
 CH3O            1.141-12
 CH4             1.590-10
 CH3OH           2.586-12
 *CN             3.441-10
 *CO             1.0087-1
 *CO2            5.2047-2
 COOH            2.6139-7
 C2H             3.018-16
 C2H2,acetylene  1.374-13
 C2H2,vinylidene 1.257-16
 CH2CO,ketene    1.962-12
 O(CH)2O         7.523-15
 HO(CO)2OH       1.738-15
 CH3CN           1.667-16
 CH3CO,acetyl    7.005-16
 C2H4            1.103-16
 OCCN            1.351-13
 C2N2            8.074-15
 C2O             4.640-13
 C3O2            5.395-15
 *H              1.9519-3
 HCN             2.0683-7
 HCO             4.6674-7
 HCCO            1.295-13
 HNC             2.3276-8
 HNCO            1.9196-7
 HNO             1.1998-7
 HNO2            5.0355-9
 HNO3            4.098-14
 HO2             7.3566-8
 *H2             7.1298-2
 HCHO,formaldehy 5.2747-8
 HCOOH           1.5766-7
 H2O             2.3279-1
 H2O2            4.4686-8
 *N              7.8367-8
 NCO             3.4527-9
 *NH             1.0467-7
 NH2             2.8206-7
 NH3             2.5118-6
 NH2OH           1.019-10
 *NO             2.5932-4
 NO2             1.1784-8
 NO3             1.638-15
 *N2             5.3919-1
 NCN             1.979-14
 N2H2            3.394-11
 N2H4            7.813-15
 N2O             5.0772-8
 N3              1.014-12
 N3H             1.575-12
 *O              2.4777-5
 *OH             1.5328-3
 *O2             3.3042-5
 O3              3.402-13

  * THERMODYNAMIC PROPERTIES FITTED TO 20000.K


                     DETONATION PROPERTIES OF AN IDEAL REACTING GAS
 CASE =                

             REACTANT                       MOLES         ENERGY      TEMP
                                                         KJ/KG-MOL      K
 FUEL        CH3OH                        1.0000000   -200858.418    300.000
 OXIDANT     O2                           1.5000000        54.358    300.000
 OXIDANT     N2                           5.6429000        53.881    300.000

 O/F=    3.78319  %FUEL= 20.906529  R,EQ.RATIO= 1.446809  PHI,EQ.RATIO= 1.700000

 UNBURNED GAS

 P1, BAR           1.0000
 T1, K             300.00
 H1, KJ/KG       -1309.07
 M1, (1/n)         29.464
 GAMMA1            1.3502
 SON VEL1,M/SEC     338.1

 BURNED GAS

 P, BAR            17.801
 T, K             2484.08
 RHO, KG/CU M    2.0873 0
 H, KJ/KG         -195.48
 U, KJ/KG        -1048.27
 G, KJ/KG        -25702.0
 S, KJ/(KG)(K)    10.2680

 M, (1/n)          24.219
 (dLV/dLP)t      -1.00071
 (dLV/dLT)p        1.0175
 Cp, KJ/(KG)(K)    1.8910
 GAMMAs            1.2304
 SON VEL,M/SEC     1024.3

 DETONATION PARAMETERS

 P/P1              17.801
 T/T1               8.280
 M/M1              0.8220
 RHO/RHO1          1.7671
 DET MACH NUMBER   5.3540
 DET VEL,M/SEC     1810.1

 MOLE FRACTIONS

 *C              1.378-13
 *CH             2.130-13
 CH2             4.540-12
 CH3             1.282-10
 CH2OH           8.438-12
 CH3O            1.353-12
 CH4             3.785-10
 CH3OH           4.411-12
 *CN             3.082-10
 *CO             1.0987-1
 *CO2            4.8150-2
 COOH            2.1140-7
 C2H             3.908-16
 C2H2,acetylene  2.925-13
 C2H2,vinylidene 2.161-16
 CH2CO,ketene    3.572-12
 O(CH)2O         1.003-14
 HO(CO)2OH       1.590-15
 CH3CN           4.619-16
 CH3CO,acetyl    1.315-15
 C2H4            3.470-16
 CH3CHO,ethanal  1.826-16
 OCCN            1.480-13
 C2N2            1.250-14
 C2O             4.696-13
 C3O2            8.057-15
 *H              1.6237-3
 HCN             2.9101-7
 HCO             4.5883-7
 HCCO            1.643-13
 HNC             3.0372-8
 HNCO            2.2309-7
 HNO             6.8956-8
 HNO2            2.1859-9
 HNO3            1.145-14
 HO2             2.9493-8
 *H2             8.5180-2
 HCHO,formaldehy 6.7815-8
 HCOOH           1.6771-7
 H2O             2.2956-1
 H2O2            2.3340-8
 *N              4.3205-8
 NCO             2.7041-9
 *NH             7.2940-8
 NH2             2.6358-7
 NH3             3.4137-6
 NH2OH           8.297-11
 *NO             1.3970-4
 NO2             4.1174-9
 NO3             3.281-16
 *N2             5.2447-1
 NCN             1.586-14
 N2H2            2.976-11
 N2H4            9.422-15
 N2O             2.6788-8
 N3              5.615-13
 N3H             1.130-12
 *O              1.1133-5
 *OH             9.8104-4
 *O2             1.2319-5
 O3              6.358-14

  * THERMODYNAMIC PROPERTIES FITTED TO 20000.K


                     DETONATION PROPERTIES OF AN IDEAL REACTING GAS
 CASE =                

             REACTANT                       MOLES         ENERGY      TEMP
                                                         KJ/KG-MOL      K
 FUEL        CH3OH                        1.0000000   -200858.418    300.000
 OXIDANT     O2                           1.5000000        54.358    300.000
 OXIDANT     N2                           5.6429000        53.881    300.000

 O/F=    3.57302  %FUEL= 21.867400  R,EQ.RATIO= 1.500000  PHI,EQ.RATIO= 1.800000

 UNBURNED GAS

 P1, BAR           1.0000
 T1, K             300.00
 H1, KJ/KG       -1369.32
 M1, (1/n)         29.493
 GAMMA1            1.3482
 SON VEL1,M/SEC     337.7

 BURNED GAS

 P, BAR            17.585
 T, K             2420.69
 RHO, KG/CU M    2.0846 0
 H, KJ/KG         -270.21
 U, KJ/KG        -1113.75
 G, KJ/KG        -25310.8
 S, KJ/(KG)(K)    10.3444

 M, (1/n)          23.860
 (dLV/dLP)t      -1.00052
 (dLV/dLT)p        1.0128
 Cp, KJ/(KG)(K)    1.8675
 GAMMAs            1.2359
 SON VEL,M/SEC     1021.1

 DETONATION PARAMETERS

 P/P1              17.585
 T/T1               8.069
 M/M1              0.8090
 RHO/RHO1          1.7631
 DET MACH NUMBER   5.3313
 DET VEL,M/SEC     1800.2

 MOLE FRACTIONS

 *C              8.319-14
 *CH             1.612-13
 CH2             4.821-12
 CH3             1.992-10
 CH2OH           9.942-12
 CH3O            1.506-12
 CH4             8.288-10
 CH3OH           7.046-12
 *CN             2.616-10
 *CO             1.1783-1
 *CO2            4.5004-2
 COOH            1.6892-7
 C2H             4.547-16
 C2H2,acetylene  5.608-13
 C2H2,vinylidene 3.313-16
 CH2CO,ketene    6.007-12
 O(CH)2O         1.261-14
 HO(CO)2OH       1.440-15
 C2H3,vinyl      1.038-16
 CH3CN           1.146-15
 CH3CO,acetyl    2.246-15
 C2H4            9.652-16
 CH3CHO,ethanal  4.109-16
 CH3COOH         1.626-16
 OCCN            1.521-13
 C2N2            1.784-14
 C2O             4.440-13
 C3O2            1.121-14
 *H              1.3185-3
 HCN             3.8829-7
 HCO             4.3489-7
 HCCO            1.932-13
 HNC             3.7470-8
 HNCO            2.5191-7
 HNO             3.9425-8
 HNO2            9.634-10
 HNO3            3.298-15
 HO2             1.1954-8
 *H2             9.9019-2
 HCHO,formaldehy 8.3530-8
 HCOOH           1.7521-7
 H2O             2.2567-1
 H2O2            1.2242-8
 *N              2.3298-8
 NCO             2.0615-9
 *NH             4.9314-8
 NH2             2.3765-7
 NH3             4.4653-6
 NH2OH           6.586-11
 *NO             7.5903-5
 NO2             1.4731-9
 *N2             5.1044-1
 NCN             1.201-14
 N2H2            2.517-11
 N2H4            1.072-14
 N2O             1.4263-8
 N3              3.047-13
 N3H             7.884-13
 *O              5.0059-6
 *OH             6.2610-4
 *O2             4.7100-6
 O3              1.227-14

  * THERMODYNAMIC PROPERTIES FITTED TO 20000.K


                     DETONATION PROPERTIES OF AN IDEAL REACTING GAS
 CASE =                

             REACTANT                       MOLES         ENERGY      TEMP
                                                         KJ/KG-MOL      K
 FUEL        CH3OH                        1.0000000   -200858.418    300.000
 OXIDANT     O2                           1.5000000        54.358    300.000
 OXIDANT     N2                           5.6429000        53.881    300.000

 O/F=    3.38496  %FUEL= 22.805206  R,EQ.RATIO= 1.551020  PHI,EQ.RATIO= 1.900000

 UNBURNED GAS

 P1, BAR           1.0000
 T1, K             300.00
 H1, KJ/KG       -1428.13
 M1, (1/n)         29.521
 GAMMA1            1.3463
 SON VEL1,M/SEC     337.3

 BURNED GAS

 P, BAR            17.366
 T, K             2358.68
 RHO, KG/CU M    2.0825 0
 H, KJ/KG         -343.79
 U, KJ/KG        -1177.70
 G, KJ/KG        -24913.6
 S, KJ/(KG)(K)    10.4168

 M, (1/n)          23.517
 (dLV/dLP)t      -1.00038
 (dLV/dLT)p        1.0095
 Cp, KJ/(KG)(K)    1.8541
 GAMMAs            1.2406
 SON VEL,M/SEC     1017.1

 DETONATION PARAMETERS

 P/P1              17.366
 T/T1               7.862
 M/M1              0.7966
 RHO/RHO1          1.7596
 DET MACH NUMBER   5.3065
 DET VEL,M/SEC     1789.7

 MOLE FRACTIONS

 *C              4.762-14
 *CH             1.150-13
 CH2             4.810-12
 CH3             2.905-10
 CH2OH           1.117-11
 CH3O            1.598-12
 CH4             1.7001-9
 CH3OH           1.070-11
 *CN             2.129-10
 *CO             1.2492-1
 *CO2            4.2460-2
 COOH            1.3385-7
 C2H             4.864-16
 C2H2,acetylene  9.909-13
 C2H2,vinylidene 4.648-16
 CH2CO,ketene    9.503-12
 O(CH)2O         1.515-14
 HO(CO)2OH       1.298-15
 C2H3,vinyl      1.794-16
 CH3CN           2.607-15
 CH3CO,acetyl    3.565-15
 C2H4            2.438-15
 CH3CHO,ethanal  8.551-16
 CH3COOH         2.919-16
 OCCN            1.488-13
 C2N2            2.391-14
 C2O             3.983-13
 C3O2            1.477-14
 *H              1.0504-3
 HCN             4.9713-7
 HCO             4.0077-7
 HCCO            2.140-13
 HNC             4.4250-8
 HNCO            2.7833-7
 HNO             2.2454-8
 HNO2            4.299-10
 HNO3            9.734-16
 HO2             4.8890-9
 *H2             1.1265-1
 HCHO,formaldehy 9.9552-8
 HCOOH           1.8071-7
 H2O             2.2138-1
 H2O2            6.4450-9
 *N              1.2343-8
 NCO             1.5395-9
 *NH             3.2546-8
 NH2             2.0828-7
 NH3             5.6682-6
 NH2OH           5.125-11
 *NO             4.1521-5
 NO2             5.372-10
 *N2             4.9709-1
 NCN             8.703-15
 N2H2            2.068-11
 N2H4            1.164-14
 N2O             7.6514-9
 N3              1.627-13
 N3H             5.388-13
 *O              2.2520-6
 *OH             3.9870-4
 *O2             1.8373-6
 O3              2.429-15

  * THERMODYNAMIC PROPERTIES FITTED TO 20000.K


                     DETONATION PROPERTIES OF AN IDEAL REACTING GAS
 CASE =                

             REACTANT                       MOLES         ENERGY      TEMP
                                                         KJ/KG-MOL      K
 FUEL        CH3OH                        1.0000000   -200858.418    300.000
 OXIDANT     O2                           1.5000000        54.358    300.000
 OXIDANT     N2                           5.6429000        53.881    300.000

 O/F=    3.21572  %FUEL= 23.720766  R,EQ.RATIO= 1.600000  PHI,EQ.RATIO= 2.000000

 UNBURNED GAS

 P1, BAR           1.0000
 T1, K             300.00
 H1, KJ/KG       -1485.54
 M1, (1/n)         29.548
 GAMMA1            1.3444
 SON VEL1,M/SEC     336.9

 BURNED GAS

 P, BAR            17.147
 T, K             2298.39
 RHO, KG/CU M    2.0809 0
 H, KJ/KG         -416.06
 U, KJ/KG        -1240.08
 G, KJ/KG        -24515.7
 S, KJ/(KG)(K)    10.4855

 M, (1/n)          23.191
 (dLV/dLP)t      -1.00029
 (dLV/dLT)p        1.0071
 Cp, KJ/(KG)(K)    1.8474
 GAMMAs            1.2446
 SON VEL,M/SEC     1012.7

 DETONATION PARAMETERS

 P/P1              17.147
 T/T1               7.661
 M/M1              0.7849
 RHO/RHO1          1.7566
 DET MACH NUMBER   5.2805
 DET VEL,M/SEC     1778.9

 MOLE FRACTIONS

 *C              2.613-14
 *CH             7.827-14
 CH2             4.568-12
 CH3             4.029-10
 CH2OH           1.209-11
 CH3O            1.632-12
 CH4             3.3136-9
 CH3OH           1.561-11
 *CN             1.676-10
 *CO             1.3129-1
 *CO2            4.0393-2
 COOH            1.0543-7
 C2H             4.869-16
 C2H2,acetylene  1.642-12
 C2H2,vinylidene 6.079-16
 CH2CO,ketene    1.433-11
 O(CH)2O         1.757-14
 HO(CO)2OH       1.167-15
 C2H3,vinyl      2.877-16
 CH3CN           5.548-15
 CH3CO,acetyl    5.343-15
 C2H4            5.710-15
 CH3CHO,ethanal  1.674-15
 CH3COOH         5.011-16
 OCCN            1.400-13
 C2N2            3.050-14
 C2O             3.428-13
 C3O2            1.868-14
 *H              8.2399-4
 HCN             6.1616-7
 HCO             3.6127-7
 HCCO            2.264-13
 HNC             5.0485-8
 HNCO            3.0245-7
 HNO             1.2753-8
 HNO2            1.938-10
 HNO3            2.931-16
 HO2             2.0139-9
 *H2             1.2596-1
 HCHO,formaldehy 1.1564-7
 HCOOH           1.8465-7
 H2O             2.1686-1
 H2O2            3.4040-9
 *N              6.4449-9
 NCO             1.1315-9
 *NH             2.1066-8
 NH2             1.7845-7
 NH3             7.0264-6
 NH2OH           3.927-11
 *NO             2.2837-5
 NO2             1.989-10
 *N2             4.8439-1
 NCN             6.086-15
 N2H2            1.662-11
 N2H4            1.220-14
 N2O             4.1301-9
 N3              8.582-14
 N3H             3.621-13
 *O              1.0134-6
 *OH             2.5346-4
 *O2             7.2833-7
 O3              4.910-16

  * THERMODYNAMIC PROPERTIES FITTED TO 20000.K



