
 *******************************************************************************

         NASA-GLENN CHEMICAL EQUILIBRIUM PROGRAM CEA2, MAY 21, 2004
                   BY  BONNIE MCBRIDE AND SANFORD GORDON
      REFS: NASA RP-1311, PART I, 1994 AND NASA RP-1311, PART II, 1996

 *******************************************************************************



 problem    phi,eq.ratio=2.1,2.2,2.3,2.4,2.5,2.6,2.7,2.8,2.9,3,3.1,3.2,3.3,3.4,3.
 5,3.6,
       det   t,k=300,  p,bar=1,
 react
   fuel=CH3OH moles=1 t,k=300
   oxid=O2 moles=1.5 t,k=300
   oxid=N2 moles=5.6429 t,k=300
 output
      trace=1e-16 siunits short
 end


                     DETONATION PROPERTIES OF AN IDEAL REACTING GAS
 CASE =                

             REACTANT                       MOLES         ENERGY      TEMP
                                                         KJ/KG-MOL      K
 FUEL        CH3OH                        1.0000000   -200858.418    300.000
 OXIDANT     O2                           1.5000000        54.358    300.000
 OXIDANT     N2                           5.6429000        53.881    300.000

 O/F=    3.06259  %FUEL= 24.614862  R,EQ.RATIO= 1.647059  PHI,EQ.RATIO= 2.100000

 UNBURNED GAS

 P1, BAR           1.0000
 T1, K             300.00
 H1, KJ/KG       -1541.60
 M1, (1/n)         29.575
 GAMMA1            1.3426
 SON VEL1,M/SEC     336.5

 BURNED GAS

 P, BAR            16.926
 T, K             2239.89
 RHO, KG/CU M    2.0795 0
 H, KJ/KG         -487.08
 U, KJ/KG        -1301.04
 G, KJ/KG        -24119.4
 S, KJ/(KG)(K)    10.5507

 M, (1/n)          22.880
 (dLV/dLP)t      -1.00021
 (dLV/dLT)p        1.0053
 Cp, KJ/(KG)(K)    1.8452
 GAMMAs            1.2482
 SON VEL,M/SEC     1007.9

 DETONATION PARAMETERS

 P/P1              16.926
 T/T1               7.466
 M/M1              0.7736
 RHO/RHO1          1.7538
 DET MACH NUMBER   5.2533
 DET VEL,M/SEC     1767.8

 MOLE FRACTIONS

 *C              1.382-14
 *CH             5.118-14
 CH2             4.163-12
 CH3             5.366-10
 CH2OH           1.270-11
 CH3O            1.616-12
 CH4             6.2038-9
 CH3OH           2.207-11
 *CN             1.283-10
 *CO             1.3705-1
 *CO2            3.8711-2
 COOH            8.2642-8
 C2H             4.614-16
 C2H2,acetylene  2.583-12
 C2H2,vinylidene 7.507-16
 CH2CO,ketene    2.082-11
 O(CH)2O         1.984-14
 HO(CO)2OH       1.049-15
 C2H3,vinyl      4.340-16
 CH3CN           1.119-14
 CH3CO,acetyl    7.649-15
 C2H4            1.259-14
 CH3CHO,ethanal  3.126-15
 CH3COOH         8.311-16
 OCCN            1.276-13
 C2N2            3.741-14
 C2O             2.852-13
 C3O2            2.287-14
 *H              6.3789-4
 HCN             7.4406-7
 HCO             3.1981-7
 HCCO            2.306-13
 HNC             5.6010-8
 HNCO            3.2439-7
 HNO             7.2186-9
 HNO2            8.802-11
 HO2             8.332-10
 *H2             1.3891-1
 HCHO,formaldehy 1.3162-7
 HCOOH           1.8739-7
 H2O             2.1221-1
 H2O2            1.8007-9
 *N              3.3204-9
 NCO             8.206-10
 *NH             1.3405-8
 NH2             1.5003-7
 NH3             8.5470-6
 NH2OH           2.971-11
 *NO             1.2603-5
 NO2             7.445-11
 *N2             4.7229-1
 NCN             4.131-15
 N2H2            1.311-11
 N2H4            1.240-14
 N2O             2.2385-9
 N3              4.473-14
 N3H             2.398-13
 *O              4.5535-7
 *OH             1.6074-4
 *O2             2.9204-7
 O3              1.007-16

  * THERMODYNAMIC PROPERTIES FITTED TO 20000.K


                     DETONATION PROPERTIES OF AN IDEAL REACTING GAS
 CASE =                

             REACTANT                       MOLES         ENERGY      TEMP
                                                         KJ/KG-MOL      K
 FUEL        CH3OH                        1.0000000   -200858.418    300.000
 OXIDANT     O2                           1.5000000        54.358    300.000
 OXIDANT     N2                           5.6429000        53.881    300.000

 O/F=    2.92338  %FUEL= 25.488241  R,EQ.RATIO= 1.692308  PHI,EQ.RATIO= 2.200000

 UNBURNED GAS

 P1, BAR           1.0000
 T1, K             300.00
 H1, KJ/KG       -1596.37
 M1, (1/n)         29.602
 GAMMA1            1.3409
 SON VEL1,M/SEC     336.1

 BURNED GAS

 P, BAR            16.705
 T, K             2183.20
 RHO, KG/CU M    2.0783 0
 H, KJ/KG         -556.85
 U, KJ/KG        -1360.63
 G, KJ/KG        -23726.3
 S, KJ/(KG)(K)    10.6126

 M, (1/n)          22.584
 (dLV/dLP)t      -1.00016
 (dLV/dLT)p        1.0040
 Cp, KJ/(KG)(K)    1.8460
 GAMMAs            1.2513
 SON VEL,M/SEC     1002.9

 DETONATION PARAMETERS

 P/P1              16.705
 T/T1               7.277
 M/M1              0.7629
 RHO/RHO1          1.7513
 DET MACH NUMBER   5.2252
 DET VEL,M/SEC     1756.4

 MOLE FRACTIONS

 *C              7.079-15
 *CH             3.234-14
 CH2             3.667-12
 CH3             6.913-10
 CH2OH           1.301-11
 CH3O            1.559-12
 CH4             1.1250-8
 CH3OH           3.044-11
 *CN             9.583-11
 *CO             1.4230-1
 *CO2            3.7338-2
 COOH            6.4505-8
 C2H             4.178-16
 C2H2,acetylene  3.898-12
 C2H2,vinylidene 8.843-16
 CH2CO,ketene    2.933-11
 O(CH)2O         2.190-14
 HO(CO)2OH       9.425-16
 C2H3,vinyl      6.233-16
 CH3CN           2.164-14
 CH3CO,acetyl    1.055-14
 C2H4            2.647-14
 CH3CHO,ethanal  5.615-15
 CH3COOH         1.342-15
 OCCN            1.134-13
 C2N2            4.443-14
 C2O             2.306-13
 C3O2            2.726-14
 *H              4.8813-4
 HCN             8.7967-7
 HCO             2.7883-7
 HCCO            2.277-13
 HNC             6.0730-8
 HNCO            3.4430-7
 HNO             4.0710-9
 HNO2            4.015-11
 HO2             3.453-10
 *H2             1.5145-1
 HCHO,formaldehy 1.4735-7
 HCOOH           1.8919-7
 H2O             2.0752-1
 H2O2            9.529-10
 *N              1.6892-9
 NCO             5.881-10
 *NH             8.4018-9
 NH2             1.2412-7
 NH3             1.0240-5
 NH2OH           2.223-11
 *NO             6.9663-6
 NO2             2.807-11
 *N2             4.6077-1
 NCN             2.734-15
 N2H2            1.018-11
 N2H4            1.231-14
 N2O             1.2161-9
 N3              2.306-14
 N3H             1.568-13
 *O              2.0401-7
 *OH             1.0166-4
 *O2             1.1802-7

  * THERMODYNAMIC PROPERTIES FITTED TO 20000.K


                     DETONATION PROPERTIES OF AN IDEAL REACTING GAS
 CASE =                

             REACTANT                       MOLES         ENERGY      TEMP
                                                         KJ/KG-MOL      K
 FUEL        CH3OH                        1.0000000   -200858.418    300.000
 OXIDANT     O2                           1.5000000        54.358    300.000
 OXIDANT     N2                           5.6429000        53.881    300.000

 O/F=    2.79627  %FUEL= 26.341615  R,EQ.RATIO= 1.735849  PHI,EQ.RATIO= 2.300000

 UNBURNED GAS

 P1, BAR           1.0000
 T1, K             300.00
 H1, KJ/KG       -1649.88
 M1, (1/n)         29.628
 GAMMA1            1.3392
 SON VEL1,M/SEC     335.8

 BURNED GAS

 P, BAR            16.484
 T, K             2128.30
 RHO, KG/CU M    2.0773 0
 H, KJ/KG         -625.40
 U, KJ/KG        -1418.92
 G, KJ/KG        -23337.7
 S, KJ/(KG)(K)    10.6716

 M, (1/n)          22.301
 (dLV/dLP)t      -1.00012
 (dLV/dLT)p        1.0030
 Cp, KJ/(KG)(K)    1.8491
 GAMMAs            1.2542
 SON VEL,M/SEC      997.6

 DETONATION PARAMETERS

 P/P1              16.484
 T/T1               7.094
 M/M1              0.7527
 RHO/RHO1          1.7489
 DET MACH NUMBER   5.1962
 DET VEL,M/SEC     1744.8

 MOLE FRACTIONS

 *C              3.524-15
 *CH             1.983-14
 CH2             3.136-12
 CH3             8.665-10
 CH2OH           1.305-11
 CH3O            1.473-12
 CH4             1.9889-8
 CH3OH           4.114-11
 *CN             7.012-11
 *CO             1.4711-1
 *CO2            3.6221-2
 COOH            5.0158-8
 C2H             3.640-16
 C2H2,acetylene  5.683-12
 C2H2,vinylidene 1.001-15
 CH2CO,ketene    4.031-11
 O(CH)2O         2.375-14
 HO(CO)2OH       8.477-16
 C2H3,vinyl      8.591-16
 CH3CN           4.043-14
 CH3CO,acetyl    1.413-14
 C2H4            5.351-14
 CH3CHO,ethanal  9.784-15
 CH3COOH         2.121-15
 OCCN            9.848-14
 C2N2            5.136-14
 C2O             1.820-13
 C3O2            3.181-14
 *H              3.6967-4
 HCN             1.0220-6
 HCO             2.3994-7
 HCCO            2.190-13
 HNC             6.4597-8
 HNCO            3.6237-7
 HNO             2.2863-9
 HNO2            1.836-11
 HO2             1.431-10
 *H2             1.6359-1
 HCHO,formaldehy 1.6275-7
 HCOOH           1.9027-7
 H2O             2.0284-1
 H2O2            5.038-10
 *N              8.490-10
 NCO             4.172-10
 *NH             5.1933-9
 NH2             1.0125-7
 NH3             1.2119-5
 NH2OH           1.648-11
 *NO             3.8516-6
 NO2             1.063-11
 *N2             4.4979-1
 NCN             1.769-15
 N2H2            7.797-12
 N2H4            1.198-14
 N2O             6.614-10
 N3              1.176-14
 N3H             1.014-13
 *O              9.1018-8
 *OH             6.4078-5
 *O2             4.7927-8

  * THERMODYNAMIC PROPERTIES FITTED TO 20000.K


                     DETONATION PROPERTIES OF AN IDEAL REACTING GAS
 CASE =                

             REACTANT                       MOLES         ENERGY      TEMP
                                                         KJ/KG-MOL      K
 FUEL        CH3OH                        1.0000000   -200858.418    300.000
 OXIDANT     O2                           1.5000000        54.358    300.000
 OXIDANT     N2                           5.6429000        53.881    300.000

 O/F=    2.67976  %FUEL= 27.175664  R,EQ.RATIO= 1.777778  PHI,EQ.RATIO= 2.400000

 UNBURNED GAS

 P1, BAR           1.0000
 T1, K             300.00
 H1, KJ/KG       -1702.18
 M1, (1/n)         29.653
 GAMMA1            1.3375
 SON VEL1,M/SEC     335.4

 BURNED GAS

 P, BAR            16.262
 T, K             2075.16
 RHO, KG/CU M    2.0764 0
 H, KJ/KG         -692.75
 U, KJ/KG        -1475.93
 G, KJ/KG        -22954.3
 S, KJ/(KG)(K)    10.7276

 M, (1/n)          22.030
 (dLV/dLP)t      -1.00010
 (dLV/dLT)p        1.0022
 Cp, KJ/(KG)(K)    1.8538
 GAMMAs            1.2569
 SON VEL,M/SEC      992.2

 DETONATION PARAMETERS

 P/P1              16.262
 T/T1               6.917
 M/M1              0.7429
 RHO/RHO1          1.7467
 DET MACH NUMBER   5.1665
 DET VEL,M/SEC     1733.0

 MOLE FRACTIONS

 *C              1.709-15
 *CH             1.184-14
 CH2             2.615-12
 CH3             1.0615-9
 CH2OH           1.287-11
 CH3O            1.367-12
 CH4             3.4455-8
 CH3OH           5.470-11
 *CN             5.036-11
 *CO             1.5153-1
 *CO2            3.5316-2
 COOH            3.8862-8
 C2H             3.065-16
 C2H2,acetylene  8.052-12
 C2H2,vinylidene 1.096-15
 CH2CO,ketene    5.429-11
 O(CH)2O         2.538-14
 HO(CO)2OH       7.633-16
 C2H3,vinyl      1.144-15
 CH3CN           7.346-14
 CH3CO,acetyl    1.845-14
 C2H4            1.048-13
 CH3CHO,ethanal  1.663-14
 CH3COOH         3.297-15
 C2H6            1.129-16
 OCCN            8.391-14
 C2N2            5.807-14
 C2O             1.405-13
 C3O2            3.647-14
 *H              2.7730-4
 HCN             1.1703-6
 HCO             2.0412-7
 HCCO            2.060-13
 HNC             6.7604-8
 HNCO            3.7875-7
 HNO             1.2781-9
 HNO2            8.405-12
 HO2             5.920-11
 *H2             1.7531-1
 HCHO,formaldehy 1.7776-7
 HCOOH           1.9078-7
 H2O             1.9820-1
 H2O2            2.658-10
 *N              4.216-10
 NCO             2.931-10
 *NH             3.1687-9
 NH2             8.1587-8
 NH3             1.4199-5
 NH2OH           1.211-11
 *NO             2.1273-6
 NO2             4.030-12
 *N2             4.3931-1
 NCN             1.122-15
 N2H2            5.901-12
 N2H4            1.145-14
 N2O             3.596-10
 N3              5.939-15
 N3H             6.488-14
 *O              4.0392-8
 *OH             4.0236-5
 *O2             1.9506-8

  * THERMODYNAMIC PROPERTIES FITTED TO 20000.K


                     DETONATION PROPERTIES OF AN IDEAL REACTING GAS
 CASE =                

             REACTANT                       MOLES         ENERGY      TEMP
                                                         KJ/KG-MOL      K
 FUEL        CH3OH                        1.0000000   -200858.418    300.000
 OXIDANT     O2                           1.5000000        54.358    300.000
 OXIDANT     N2                           5.6429000        53.881    300.000

 O/F=    2.57257  %FUEL= 27.991035  R,EQ.RATIO= 1.818182  PHI,EQ.RATIO= 2.500000

 UNBURNED GAS

 P1, BAR           1.0000
 T1, K             300.00
 H1, KJ/KG       -1753.31
 M1, (1/n)         29.678
 GAMMA1            1.3360
 SON VEL1,M/SEC     335.1

 BURNED GAS

 P, BAR            16.041
 T, K             2023.72
 RHO, KG/CU M    2.0756 0
 H, KJ/KG         -758.90
 U, KJ/KG        -1531.73
 G, KJ/KG        -22576.5
 S, KJ/(KG)(K)    10.7809

 M, (1/n)          21.772
 (dLV/dLP)t      -1.00008
 (dLV/dLT)p        1.0017
 Cp, KJ/(KG)(K)    1.8596
 GAMMAs            1.2594
 SON VEL,M/SEC      986.6

 DETONATION PARAMETERS

 P/P1              16.041
 T/T1               6.746
 M/M1              0.7336
 RHO/RHO1          1.7445
 DET MACH NUMBER   5.1362
 DET VEL,M/SEC     1721.1

 MOLE FRACTIONS

 *C              8.086-16
 *CH             6.892-15
 CH2             2.131-12
 CH3             1.2754-9
 CH2OH           1.249-11
 CH3O            1.249-12
 CH4             5.8728-8
 CH3OH           7.176-11
 *CN             3.555-11
 *CO             1.5561-1
 *CO2            3.4590-2
 COOH            3.0004-8
 C2H             2.506-16
 C2H2,acetylene  1.114-11
 C2H2,vinylidene 1.165-15
 CH2CO,ketene    7.190-11
 O(CH)2O         2.677-14
 HO(CO)2OH       6.881-16
 C2H3,vinyl      1.480-15
 CH3CN           1.305-13
 CH3CO,acetyl    2.360-14
 C2H4            2.002-13
 CH3CHO,ethanal  2.771-14
 CH3COOH         5.061-15
 C2H6            2.781-16
 OCCN            7.030-14
 C2N2            6.441-14
 C2O             1.064-13
 C3O2            4.118-14
 *H              2.0617-4
 HCN             1.3237-6
 HCO             1.7187-7
 HCCO            1.900-13
 HNC             6.9770-8
 HNCO            3.9361-7
 HNO             7.108-10
 HNO2            3.844-12
 HO2             2.440-11
 *H2             1.8663-1
 HCHO,formaldehy 1.9233-7
 HCOOH           1.9088-7
 H2O             1.9362-1
 H2O2            1.398-10
 *N              2.068-10
 NCO             2.041-10
 *NH             1.9097-9
 NH2             6.5010-8
 NH3             1.6500-5
 NH2OH           8.829-12
 *NO             1.1725-6
 NO2             1.527-12
 *N2             4.2930-1
 NCN             6.989-16
 N2H2            4.418-12
 N2H4            1.079-14
 N2O             1.952-10
 N3              2.967-15
 N3H             4.109-14
 *O              1.7811-8
 *OH             2.5157-5
 *O2             7.9390-9

  * THERMODYNAMIC PROPERTIES FITTED TO 20000.K


                     DETONATION PROPERTIES OF AN IDEAL REACTING GAS
 CASE =                

             REACTANT                       MOLES         ENERGY      TEMP
                                                         KJ/KG-MOL      K
 FUEL        CH3OH                        1.0000000   -200858.418    300.000
 OXIDANT     O2                           1.5000000        54.358    300.000
 OXIDANT     N2                           5.6429000        53.881    300.000

 O/F=    2.47363  %FUEL= 28.788350  R,EQ.RATIO= 1.857143  PHI,EQ.RATIO= 2.600000

 UNBURNED GAS

 P1, BAR           1.0000
 T1, K             300.00
 H1, KJ/KG       -1803.30
 M1, (1/n)         29.702
 GAMMA1            1.3344
 SON VEL1,M/SEC     334.8

 BURNED GAS

 P, BAR            15.820
 T, K             1973.92
 RHO, KG/CU M    2.0749 0
 H, KJ/KG         -823.89
 U, KJ/KG        -1586.34
 G, KJ/KG        -22204.8
 S, KJ/(KG)(K)    10.8317

 M, (1/n)          21.526
 (dLV/dLP)t      -1.00006
 (dLV/dLT)p        1.0013
 Cp, KJ/(KG)(K)    1.8663
 GAMMAs            1.2617
 SON VEL,M/SEC      980.8

 DETONATION PARAMETERS

 P/P1              15.820
 T/T1               6.580
 M/M1              0.7247
 RHO/RHO1          1.7425
 DET MACH NUMBER   5.1053
 DET VEL,M/SEC     1709.0

 MOLE FRACTIONS

 *C              3.738-16
 *CH             3.922-15
 CH2             1.702-12
 CH3             1.5071-9
 CH2OH           1.196-11
 CH3O            1.125-12
 CH4             9.8818-8
 CH3OH           9.312-11
 *CN             2.471-11
 *CO             1.5938-1
 *CO2            3.4018-2
 COOH            2.3086-8
 C2H             1.996-16
 C2H2,acetylene  1.509-11
 C2H2,vinylidene 1.208-15
 CH2CO,ketene    9.390-11
 O(CH)2O         2.794-14
 HO(CO)2OH       6.212-16
 C2H3,vinyl      1.867-15
 CH3CN           2.276-13
 CH3CO,acetyl    2.965-14
 C2H4            3.742-13
 CH3CHO,ethanal  4.543-14
 CH3COOH         7.689-15
 C2H6            6.699-16
 OCCN            5.801-14
 C2N2            7.028-14
 C2O             7.925-14
 C3O2            4.592-14
 *H              1.5200-4
 HCN             1.4817-6
 HCO             1.4336-7
 HCCO            1.722-13
 HNC             7.1140-8
 HNCO            4.0710-7
 HNO             3.931-10
 HNO2            1.754-12
 HO2             1.001-11
 *H2             1.9756-1
 HCHO,formaldehy 2.0645-7
 HCOOH           1.9065-7
 H2O             1.8912-1
 H2O2            7.329-11
 *N              1.003-10
 NCO             1.409-10
 *NH             1.1373-9
 NH2             5.1275-8
 NH3             1.9046-5
 NH2OH           6.392-12
 *NO             6.4425-7
 NO2             5.775-13
 *N2             4.1973-1
 NCN             4.279-16
 N2H2            3.275-12
 N2H4            1.003-14
 N2O             1.057-10
 N3              1.467-15
 N3H             2.578-14
 *O              7.7959-9
 *OH             1.5654-5
 *O2             3.2254-9

  * THERMODYNAMIC PROPERTIES FITTED TO 20000.K


                     DETONATION PROPERTIES OF AN IDEAL REACTING GAS
 CASE =                

             REACTANT                       MOLES         ENERGY      TEMP
                                                         KJ/KG-MOL      K
 FUEL        CH3OH                        1.0000000   -200858.418    300.000
 OXIDANT     O2                           1.5000000        54.358    300.000
 OXIDANT     N2                           5.6429000        53.881    300.000

 O/F=    2.38201  %FUEL= 29.568202  R,EQ.RATIO= 1.894737  PHI,EQ.RATIO= 2.700000

 UNBURNED GAS

 P1, BAR           1.0000
 T1, K             300.00
 H1, KJ/KG       -1852.20
 M1, (1/n)         29.726
 GAMMA1            1.3329
 SON VEL1,M/SEC     334.4

 BURNED GAS

 P, BAR            15.599
 T, K             1925.69
 RHO, KG/CU M    2.0742 0
 H, KJ/KG         -887.75
 U, KJ/KG        -1639.82
 G, KJ/KG        -21839.3
 S, KJ/(KG)(K)    10.8800

 M, (1/n)          21.289
 (dLV/dLP)t      -1.00006
 (dLV/dLT)p        1.0010
 Cp, KJ/(KG)(K)    1.8735
 GAMMAs            1.2639
 SON VEL,M/SEC      975.0

 DETONATION PARAMETERS

 P/P1              15.599
 T/T1               6.419
 M/M1              0.7162
 RHO/RHO1          1.7405
 DET MACH NUMBER   5.0739
 DET VEL,M/SEC     1696.9

 MOLE FRACTIONS

 *C              1.690-16
 *CH             2.185-15
 CH2             1.334-12
 CH3             1.7555-9
 CH2OH           1.133-11
 CH3O            1.001-12
 CH4             1.6459-7
 CH3OH           1.198-10
 *CN             1.692-11
 *CO             1.6288-1
 *CO2            3.3579-2
 COOH            1.7700-8
 C2H             1.552-16
 C2H2,acetylene  2.011-11
 C2H2,vinylidene 1.224-15
 CH2CO,ketene    1.212-10
 O(CH)2O         2.890-14
 HO(CO)2OH       5.616-16
 C2H3,vinyl      2.305-15
 CH3CN           3.910-13
 CH3CO,acetyl    3.670-14
 C2H4            6.877-13
 CH3CHO,ethanal  7.351-14
 CH3COOH         1.159-14
 C2H5            1.309-16
 C2H6            1.584-15
 OCCN            4.721-14
 C2N2            7.561-14
 C2O             5.805-14
 C3O2            5.066-14
 *H              1.1117-4
 HCN             1.6439-6
 HCO             1.1856-7
 HCCO            1.537-13
 HNC             7.1769-8
 HNCO            4.1935-7
 HNO             2.160-10
 HNO2            7.976-13
 HO2             4.081-12
 *H2             2.0812-1
 HCHO,formaldehy 2.2010-7
 HCOOH           1.9018-7
 H2O             1.8470-1
 H2O2            3.824-11
 *N              4.803-11
 NCO             9.646-11
 *NH             6.695-10
 NH2             4.0061-8
 NH3             2.1863-5
 NH2OH           4.595-12
 *NO             3.5262-7
 NO2             2.175-13
 *N2             4.1058-1
 NCN             2.578-16
 N2H2            2.406-12
 N2H4            9.230-15
 N2O             5.708-11
 N3              7.175-16
 N3H             1.602-14
 *O              3.3843-9
 *OH             9.6909-6
 *O2             1.3059-9

  * THERMODYNAMIC PROPERTIES FITTED TO 20000.K


                     DETONATION PROPERTIES OF AN IDEAL REACTING GAS
 CASE =                

             REACTANT                       MOLES         ENERGY      TEMP
                                                         KJ/KG-MOL      K
 FUEL        CH3OH                        1.0000000   -200858.418    300.000
 OXIDANT     O2                           1.5000000        54.358    300.000
 OXIDANT     N2                           5.6429000        53.881    300.000

 O/F=    2.29694  %FUEL= 30.331159  R,EQ.RATIO= 1.931034  PHI,EQ.RATIO= 2.800000

 UNBURNED GAS

 P1, BAR           1.0000
 T1, K             300.00
 H1, KJ/KG       -1900.04
 M1, (1/n)         29.749
 GAMMA1            1.3315
 SON VEL1,M/SEC     334.1

 BURNED GAS

 P, BAR            15.379
 T, K             1878.98
 RHO, KG/CU M    2.0735 0
 H, KJ/KG         -950.48
 U, KJ/KG        -1692.19
 G, KJ/KG        -21480.1
 S, KJ/(KG)(K)    10.9259

 M, (1/n)          21.063
 (dLV/dLP)t      -1.00005
 (dLV/dLT)p        1.0007
 Cp, KJ/(KG)(K)    1.8811
 GAMMAs            1.2660
 SON VEL,M/SEC      969.0

 DETONATION PARAMETERS

 P/P1              15.379
 T/T1               6.263
 M/M1              0.7080
 RHO/RHO1          1.7385
 DET MACH NUMBER   5.0421
 DET VEL,M/SEC     1684.7

 MOLE FRACTIONS

 *CH             1.193-15
 CH2             1.028-12
 CH3             2.0196-9
 CH2OH           1.061-11
 CH3O            8.805-13
 CH4             2.7198-7
 CH3OH           1.529-10
 *CN             1.143-11
 *CO             1.6613-1
 *CO2            3.3258-2
 COOH            1.3523-8
 C2H             1.180-16
 C2H2,acetylene  2.639-11
 C2H2,vinylidene 1.216-15
 CH2CO,ketene    1.549-10
 O(CH)2O         2.966-14
 HO(CO)2OH       5.084-16
 C2H3,vinyl      2.793-15
 CH3CN           6.637-13
 CH3CO,acetyl    4.486-14
 C2H4            1.246-12
 CH3CHO,ethanal  1.177-13
 CH3COOH         1.738-14
 C2H5            2.186-16
 C2H6            3.695-15
 OCCN            3.794-14
 C2N2            8.034-14
 C2O             4.190-14
 C3O2            5.535-14
 *H              8.0664-5
 HCN             1.8098-6
 HCO             9.7251-8
 HCCO            1.353-13
 HNC             7.1722-8
 HNCO            4.3047-7
 HNO             1.180-10
 HNO2            3.610-13
 HO2             1.652-12
 *H2             2.1832-1
 HCHO,formaldehy 2.3327-7
 HCOOH           1.8954-7
 H2O             1.8037-1
 H2O2            1.984-11
 *N              2.272-11
 NCO             6.551-11
 *NH             3.897-10
 NH2             3.1021-8
 NH3             2.4982-5
 NH2OH           3.282-12
 *NO             1.9210-7
 NO2             8.145-14
 *N2             4.0181-1
 NCN             1.530-16
 N2H2            1.753-12
 N2H4            8.405-15
 N2O             3.070-11
 N3              3.472-16
 N3H             9.871-15
 *O              1.4559-9
 *OH             5.9659-6
 *O2             5.262-10

  * THERMODYNAMIC PROPERTIES FITTED TO 20000.K


                     DETONATION PROPERTIES OF AN IDEAL REACTING GAS
 CASE =                

             REACTANT                       MOLES         ENERGY      TEMP
                                                         KJ/KG-MOL      K
 FUEL        CH3OH                        1.0000000   -200858.418    300.000
 OXIDANT     O2                           1.5000000        54.358    300.000
 OXIDANT     N2                           5.6429000        53.881    300.000

 O/F=    2.21773  %FUEL= 31.077763  R,EQ.RATIO= 1.966102  PHI,EQ.RATIO= 2.900000

 UNBURNED GAS

 P1, BAR           1.0000
 T1, K             300.00
 H1, KJ/KG       -1946.86
 M1, (1/n)         29.772
 GAMMA1            1.3301
 SON VEL1,M/SEC     333.8

 BURNED GAS

 P, BAR            15.160
 T, K             1833.71
 RHO, KG/CU M    2.0728 0
 H, KJ/KG        -1012.12
 U, KJ/KG        -1743.49
 G, KJ/KG        -21127.3
 S, KJ/(KG)(K)    10.9697

 M, (1/n)          20.846
 (dLV/dLP)t      -1.00005
 (dLV/dLT)p        1.0006
 Cp, KJ/(KG)(K)    1.8890
 GAMMAs            1.2680
 SON VEL,M/SEC      963.0

 DETONATION PARAMETERS

 P/P1              15.160
 T/T1               6.112
 M/M1              0.7002
 RHO/RHO1          1.7366
 DET MACH NUMBER   5.0098
 DET VEL,M/SEC     1672.4

 MOLE FRACTIONS

 *CH             6.382-16
 CH2             7.802-13
 CH3             2.2982-9
 CH2OH           9.843-12
 CH3O            7.669-13
 CH4             4.4675-7
 CH3OH           1.940-10
 *CN             7.617-12
 *CO             1.6915-1
 *CO2            3.3042-2
 COOH            1.0294-8
 C2H2,acetylene  3.419-11
 C2H2,vinylidene 1.186-15
 CH2CO,ketene    1.963-10
 O(CH)2O         3.023-14
 HO(CO)2OH       4.608-16
 C2H3,vinyl      3.329-15
 CH3CN           1.116-12
 CH3CO,acetyl    5.423-14
 C2H4            2.233-12
 CH3CHO,ethanal  1.869-13
 CH3COOH         2.596-14
 C2H5            3.596-16
 C2H6            8.522-15
 OCCN            3.013-14
 C2N2            8.443-14
 C2O             2.981-14
 C3O2            5.999-14
 *H              5.8084-5
 HCN             1.9791-6
 HCO             7.9166-8
 HCCO            1.175-13
 HNC             7.1072-8
 HNCO            4.4059-7
 HNO             6.395-11
 HNO2            1.625-13
 HO2             6.631-13
 *H2             2.2819-1
 HCHO,formaldehy 2.4597-7
 HCOOH           1.8877-7
 H2O             1.7612-1
 H2O2            1.024-11
 *N              1.061-11
 NCO             4.414-11
 *NH             2.242-10
 NH2             2.3818-8
 NH3             2.8439-5
 NH2OH           2.329-12
 *NO             1.0409-7
 NO2             3.030-14
 *N2             3.9341-1
 N2H2            1.266-12
 N2H4            7.585-15
 N2O             1.643-11
 N3              1.661-16
 N3H             6.026-15
 *O              6.202-10
 *OH             3.6509-6
 *O2             2.107-10

  * THERMODYNAMIC PROPERTIES FITTED TO 20000.K


                     DETONATION PROPERTIES OF AN IDEAL REACTING GAS
 CASE =                

             REACTANT                       MOLES         ENERGY      TEMP
                                                         KJ/KG-MOL      K
 FUEL        CH3OH                        1.0000000   -200858.418    300.000
 OXIDANT     O2                           1.5000000        54.358    300.000
 OXIDANT     N2                           5.6429000        53.881    300.000

 O/F=    2.14381  %FUEL= 31.808534  R,EQ.RATIO= 2.000000  PHI,EQ.RATIO= 3.000000

 UNBURNED GAS

 P1, BAR           1.0000
 T1, K             300.00
 H1, KJ/KG       -1992.68
 M1, (1/n)         29.794
 GAMMA1            1.3287
 SON VEL1,M/SEC     333.5

 BURNED GAS

 P, BAR            14.942
 T, K             1789.83
 RHO, KG/CU M    2.0721 0
 H, KJ/KG        -1072.69
 U, KJ/KG        -1793.76
 G, KJ/KG        -20781.0
 S, KJ/(KG)(K)    11.0113

 M, (1/n)          20.638
 (dLV/dLP)t      -1.00005
 (dLV/dLT)p        1.0005
 Cp, KJ/(KG)(K)    1.8971
 GAMMAs            1.2699
 SON VEL,M/SEC      956.9

 DETONATION PARAMETERS

 P/P1              14.942
 T/T1               5.966
 M/M1              0.6927
 RHO/RHO1          1.7348
 DET MACH NUMBER   4.9772
 DET VEL,M/SEC     1660.0

 MOLE FRACTIONS

 *CH             3.351-16
 CH2             5.831-13
 CH3             2.5904-9
 CH2OH           9.052-12
 CH3O            6.618-13
 CH4             7.3063-7
 CH3OH           2.450-10
 *CN             5.011-12
 *CO             1.7196-1
 *CO2            3.2922-2
 COOH            7.8062-9
 C2H2,acetylene  4.382-11
 C2H2,vinylidene 1.138-15
 CH2CO,ketene    2.471-10
 O(CH)2O         3.061-14
 HO(CO)2OH       4.182-16
 C2H3,vinyl      3.910-15
 CH3CN           1.861-12
 CH3CO,acetyl    6.494-14
 C2H4            3.964-12
 CH3CHO,ethanal  2.947-13
 CH3COOH         3.866-14
 C2H5            5.843-16
 C2H6            1.950-14
 OCCN            2.366-14
 C2N2            8.786-14
 C2O             2.093-14
 C3O2            6.456-14
 *H              4.1510-5
 HCN             2.1517-6
 HCO             6.3973-8
 HCCO            1.009-13
 HNC             6.9891-8
 HNCO            4.4980-7
 HNO             3.442-11
 HNO2            7.271-14
 HO2             2.638-13
 *H2             2.3773-1
 HCHO,formaldehy 2.5821-7
 HCOOH           1.8793-7
 H2O             1.7196-1
 H2O2            5.245-12
 *N              4.894-12
 NCO             2.950-11
 *NH             1.276-10
 NH2             1.8140-8
 NH3             3.2277-5
 NH2OH           1.643-12
 *NO             5.6064-8
 NO2             1.118-14
 *N2             3.8536-1
 N2H2            9.074-13
 N2H4            6.790-15
 N2O             8.748-12
 N3H             3.646-15
 *O              2.614-10
 *OH             2.2200-6
 *O2             8.375-11

  * THERMODYNAMIC PROPERTIES FITTED TO 20000.K


                     DETONATION PROPERTIES OF AN IDEAL REACTING GAS
 CASE =                

             REACTANT                       MOLES         ENERGY      TEMP
                                                         KJ/KG-MOL      K
 FUEL        CH3OH                        1.0000000   -200858.418    300.000
 OXIDANT     O2                           1.5000000        54.358    300.000
 OXIDANT     N2                           5.6429000        53.881    300.000

 O/F=    2.07466  %FUEL= 32.523972  R,EQ.RATIO= 2.032787  PHI,EQ.RATIO= 3.100000

 UNBURNED GAS

 P1, BAR           1.0000
 T1, K             300.00
 H1, KJ/KG       -2037.54
 M1, (1/n)         29.816
 GAMMA1            1.3274
 SON VEL1,M/SEC     333.2

 BURNED GAS

 P, BAR            14.724
 T, K             1747.28
 RHO, KG/CU M    2.0715 0
 H, KJ/KG        -1132.22
 U, KJ/KG        -1843.01
 G, KJ/KG        -20441.0
 S, KJ/(KG)(K)    11.0508

 M, (1/n)          20.439
 (dLV/dLP)t      -1.00005
 (dLV/dLT)p        1.0004
 Cp, KJ/(KG)(K)    1.9054
 GAMMAs            1.2717
 SON VEL,M/SEC      950.7

 DETONATION PARAMETERS

 P/P1              14.724
 T/T1               5.824
 M/M1              0.6855
 RHO/RHO1          1.7330
 DET MACH NUMBER   4.9443
 DET VEL,M/SEC     1647.6

 MOLE FRACTIONS

 *CH             1.727-16
 CH2             4.297-13
 CH3             2.8949-9
 CH2OH           8.257-12
 CH3O            5.662-13
 CH4             1.1913-6
 CH3OH           3.082-10
 *CN             3.255-12
 *CO             1.7457-1
 *CO2            3.2889-2
 COOH            5.8969-9
 C2H2,acetylene  5.561-11
 C2H2,vinylidene 1.076-15
 CH2CO,ketene    3.092-10
 O(CH)2O         3.084-14
 HO(CO)2OH       3.800-16
 C2H3,vinyl      4.533-15
 CH3CN           3.087-12
 CH3CO,acetyl    7.713-14
 C2H4            6.989-12
 CH3CHO,ethanal  4.625-13
 CH3COOH         5.751-14
 C2H5            9.396-16
 C2H6            4.435-14
 OCCN            1.839-14
 C2N2            9.064-14
 C2O             1.450-14
 C3O2            6.903-14
 *H              2.9443-5
 HCN             2.3273-6
 HCO             5.1331-8
 HCCO            8.568-14
 HNC             6.8252-8
 HNCO            4.5819-7
 HNO             1.838-11
 HNO2            3.230-14
 HO2             1.039-13
 *H2             2.4697-1
 HCHO,formaldehy 2.6999-7
 HCOOH           1.8705-7
 H2O             1.6788-1
 H2O2            2.668-12
 *N              2.227-12
 NCO             1.957-11
 *NH             7.176-11
 NH2             1.3706-8
 NH3             3.6541-5
 NH2OH           1.151-12
 *NO             2.9999-8
 NO2             4.088-15
 *N2             3.7762-1
 N2H2            6.454-13
 N2H4            6.034-15
 N2O             4.631-12
 N3H             2.186-15
 *O              1.090-10
 *OH             1.3410-6
 *O2             3.302-11

  * THERMODYNAMIC PROPERTIES FITTED TO 20000.K


                     DETONATION PROPERTIES OF AN IDEAL REACTING GAS
 CASE =                

             REACTANT                       MOLES         ENERGY      TEMP
                                                         KJ/KG-MOL      K
 FUEL        CH3OH                        1.0000000   -200858.418    300.000
 OXIDANT     O2                           1.5000000        54.358    300.000
 OXIDANT     N2                           5.6429000        53.881    300.000

 O/F=    2.00982  %FUEL= 33.224554  R,EQ.RATIO= 2.064516  PHI,EQ.RATIO= 3.200000

 UNBURNED GAS

 P1, BAR           1.0000
 T1, K             300.00
 H1, KJ/KG       -2081.47
 M1, (1/n)         29.838
 GAMMA1            1.3261
 SON VEL1,M/SEC     332.9

 BURNED GAS

 P, BAR            14.508
 T, K             1706.00
 RHO, KG/CU M    2.0709 0
 H, KJ/KG        -1190.71
 U, KJ/KG        -1891.29
 G, KJ/KG        -20107.4
 S, KJ/(KG)(K)    11.0884

 M, (1/n)          20.247
 (dLV/dLP)t      -1.00006
 (dLV/dLT)p        1.0004
 Cp, KJ/(KG)(K)    1.9138
 GAMMAs            1.2734
 SON VEL,M/SEC      944.5

 DETONATION PARAMETERS

 P/P1              14.508
 T/T1               5.687
 M/M1              0.6786
 RHO/RHO1          1.7312
 DET MACH NUMBER   4.9111
 DET VEL,M/SEC     1635.1

 MOLE FRACTIONS

 CH2             3.123-13
 CH3             3.2109-9
 CH2OH           7.476-12
 CH3O            4.804-13
 CH4             1.9391-6
 CH3OH           3.866-10
 *CN             2.089-12
 *CO             1.7700-1
 *CO2            3.2939-2
 COOH            4.4369-9
 C2H2,acetylene  7.000-11
 C2H2,vinylidene 1.003-15
 CH2CO,ketene    3.849-10
 O(CH)2O         3.092-14
 HO(CO)2OH       3.457-16
 C2H3,vinyl      5.194-15
 CH3CN           5.096-12
 CH3CO,acetyl    9.098-14
 C2H4            1.226-11
 CH3CHO,ethanal  7.232-13
 CH3COOH         8.550-14
 C2H5            1.498-15
 C2H6            1.005-13
 C2H5OH          1.493-16
 OCCN            1.415-14
 C2N2            9.278-14
 C2O             9.925-15
 C3O2            7.341-14
 *H              2.0729-5
 HCN             2.5059-6
 HCO             4.0906-8
 HCCO            7.199-14
 HNC             6.6227-8
 HNCO            4.6584-7
 HNO             9.730-12
 HNO2            1.423-14
 HO2             4.046-14
 *H2             2.5592-1
 HCHO,formaldehy 2.8132-7
 HCOOH           1.8615-7
 H2O             1.6389-1
 H2O2            1.347-12
 *N              1.000-12
 NCO             1.287-11
 *NH             3.991-11
 NH2             1.0277-8
 NH3             4.1287-5
 NH2OH           8.018-13
 *NO             1.5938-8
 NO2             1.480-15
 *N2             3.7019-1
 N2H2            4.556-13
 N2H4            5.325-15
 N2O             2.435-12
 N3H             1.300-15
 *O              4.488-11
 *OH             8.0430-7
 *O2             1.289-11

  * THERMODYNAMIC PROPERTIES FITTED TO 20000.K


                     DETONATION PROPERTIES OF AN IDEAL REACTING GAS
 CASE =                

             REACTANT                       MOLES         ENERGY      TEMP
                                                         KJ/KG-MOL      K
 FUEL        CH3OH                        1.0000000   -200858.418    300.000
 OXIDANT     O2                           1.5000000        54.358    300.000
 OXIDANT     N2                           5.6429000        53.881    300.000

 O/F=    1.94892  %FUEL= 33.910737  R,EQ.RATIO= 2.095238  PHI,EQ.RATIO= 3.300000

 UNBURNED GAS

 P1, BAR           1.0000
 T1, K             300.00
 H1, KJ/KG       -2124.50
 M1, (1/n)         29.859
 GAMMA1            1.3248
 SON VEL1,M/SEC     332.7

 BURNED GAS

 P, BAR            14.293
 T, K             1665.94
 RHO, KG/CU M    2.0702 0
 H, KJ/KG        -1248.20
 U, KJ/KG        -1938.62
 G, KJ/KG        -19780.2
 S, KJ/(KG)(K)    11.1241

 M, (1/n)          20.062
 (dLV/dLP)t      -1.00007
 (dLV/dLT)p        1.0004
 Cp, KJ/(KG)(K)    1.9223
 GAMMAs            1.2750
 SON VEL,M/SEC      938.2

 DETONATION PARAMETERS

 P/P1              14.293
 T/T1               5.553
 M/M1              0.6719
 RHO/RHO1          1.7294
 DET MACH NUMBER   4.8776
 DET VEL,M/SEC     1622.6

 MOLE FRACTIONS

 CH2             2.241-13
 CH3             3.5375-9
 CH2OH           6.721-12
 CH3O            4.045-13
 CH4             3.1539-6
 CH3OH           4.837-10
 *CN             1.324-12
 *CO             1.7925-1
 *CO2            3.3065-2
 COOH            3.3246-9
 C2H2,acetylene  8.747-11
 C2H2,vinylidene 9.228-16
 CH2CO,ketene    4.773-10
 O(CH)2O         3.087-14
 HO(CO)2OH       3.149-16
 C2H3,vinyl      5.891-15
 CH3CN           8.389-12
 CH3CO,acetyl    1.066-13
 C2H4            2.141-11
 CH3CHO,ethanal  1.128-12
 CH3COOH         1.272-13
 C2H5            2.372-15
 C2H6            2.275-13
 C2H5OH          2.679-16
 OCCN            1.078-14
 C2N2            9.430-14
 C2O             6.710-15
 C3H4,propyne    1.024-16
 C3O2            7.767-14
 *H              1.4485-5
 HCN             2.6874-6
 HCO             3.2379-8
 HCCO            5.990-14
 HNC             6.3884-8
 HNCO            4.7284-7
 HNO             5.107-12
 HNO2            6.217-15
 HO2             1.558-14
 *H2             2.6460-1
 HCHO,formaldehy 2.9223-7
 HCOOH           1.8526-7
 H2O             1.5996-1
 H2O2            6.743-13
 *N              4.429-13
 NCO             8.402-12
 *NH             2.194-11
 NH2             7.6484-9
 NH3             4.6577-5
 NH2OH           5.550-13
 *NO             8.4036-9
 NO2             5.300-16
 *N2             3.6305-1
 N2H2            3.193-13
 N2H4            4.669-15
 N2O             1.272-12
 N3H             7.654-16
 *O              1.826-11
 *OH             4.7889-7
 *O2             4.985-12

  * THERMODYNAMIC PROPERTIES FITTED TO 20000.K


                     DETONATION PROPERTIES OF AN IDEAL REACTING GAS
 CASE =                

             REACTANT                       MOLES         ENERGY      TEMP
                                                         KJ/KG-MOL      K
 FUEL        CH3OH                        1.0000000   -200858.418    300.000
 OXIDANT     O2                           1.5000000        54.358    300.000
 OXIDANT     N2                           5.6429000        53.881    300.000

 O/F=    1.89160  %FUEL= 34.582961  R,EQ.RATIO= 2.125000  PHI,EQ.RATIO= 3.400000

 UNBURNED GAS

 P1, BAR           1.0000
 T1, K             300.00
 H1, KJ/KG       -2166.65
 M1, (1/n)         29.880
 GAMMA1            1.3236
 SON VEL1,M/SEC     332.4

 BURNED GAS

 P, BAR            14.080
 T, K             1627.05
 RHO, KG/CU M    2.0696 0
 H, KJ/KG        -1304.70
 U, KJ/KG        -1985.02
 G, KJ/KG        -19459.3
 S, KJ/(KG)(K)    11.1579

 M, (1/n)          19.885
 (dLV/dLP)t      -1.00008
 (dLV/dLT)p        1.0005
 Cp, KJ/(KG)(K)    1.9310
 GAMMAs            1.2766
 SON VEL,M/SEC      931.9

 DETONATION PARAMETERS

 P/P1              14.080
 T/T1               5.424
 M/M1              0.6655
 RHO/RHO1          1.7277
 DET MACH NUMBER   4.8438
 DET VEL,M/SEC     1610.1

 MOLE FRACTIONS

 CH2             1.588-13
 CH3             3.8736-9
 CH2OH           6.003-12
 CH3O            3.382-13
 CH4             5.1309-6
 CH3OH           6.042-10
 *CN             8.296-13
 *CO             1.8135-1
 *CO2            3.3264-2
 COOH            2.4807-9
 C2H2,acetylene  1.086-10
 C2H2,vinylidene 8.388-16
 CH2CO,ketene    5.898-10
 O(CH)2O         3.070-14
 HO(CO)2OH       2.871-16
 C2H3,vinyl      6.618-15
 CH3CN           1.378-11
 CH3CO,acetyl    1.244-13
 C2H4            3.729-11
 CH3CHO,ethanal  1.757-12
 CH3COOH         1.894-13
 C2H5            3.736-15
 C2H6            5.146-13
 C2H5OH          4.803-16
 OCCN            8.140-15
 C2N2            9.523-14
 C2O             4.483-15
 C3H4,propyne    1.878-16
 C3O2            8.182-14
 *H              1.0047-5
 HCN             2.8718-6
 HCO             2.5462-8
 HCCO            4.937-14
 HNC             6.1287-8
 HNCO            4.7924-7
 HNO             2.657-12
 HNO2            2.691-15
 HO2             5.927-15
 *H2             2.7303-1
 HCHO,formaldehy 3.0271-7
 HCOOH           1.8440-7
 H2O             1.5611-1
 H2O2            3.347-13
 *N              1.935-13
 NCO             5.440-12
 *NH             1.192-11
 NH2             5.6500-9
 NH3             5.2484-5
 NH2OH           3.818-13
 *NO             4.3955-9
 NO2             1.876-16
 *N2             3.5617-1
 N2H2            2.221-13
 N2H4            4.069-15
 N2O             6.594-13
 N3H             4.468-16
 *O              7.333-12
 *OH             2.8296-7
 *O2             1.906-12

  * THERMODYNAMIC PROPERTIES FITTED TO 20000.K


                     DETONATION PROPERTIES OF AN IDEAL REACTING GAS
 CASE =                

             REACTANT                       MOLES         ENERGY      TEMP
                                                         KJ/KG-MOL      K
 FUEL        CH3OH                        1.0000000   -200858.418    300.000
 OXIDANT     O2                           1.5000000        54.358    300.000
 OXIDANT     N2                           5.6429000        53.881    300.000

 O/F=    1.83755  %FUEL= 35.241648  R,EQ.RATIO= 2.153846  PHI,EQ.RATIO= 3.500000

 UNBURNED GAS

 P1, BAR           1.0000
 T1, K             300.00
 H1, KJ/KG       -2207.96
 M1, (1/n)         29.900
 GAMMA1            1.3224
 SON VEL1,M/SEC     332.1

 BURNED GAS

 P, BAR            13.868
 T, K             1589.30
 RHO, KG/CU M    2.0690 0
 H, KJ/KG        -1360.23
 U, KJ/KG        -2030.52
 G, KJ/KG        -19144.6
 S, KJ/(KG)(K)    11.1901

 M, (1/n)          19.714
 (dLV/dLP)t      -1.00010
 (dLV/dLT)p        1.0006
 Cp, KJ/(KG)(K)    1.9399
 GAMMAs            1.2781
 SON VEL,M/SEC      925.6

 DETONATION PARAMETERS

 P/P1              13.868
 T/T1               5.298
 M/M1              0.6593
 RHO/RHO1          1.7260
 DET MACH NUMBER   4.8099
 DET VEL,M/SEC     1597.6

 MOLE FRACTIONS

 CH2             1.112-13
 CH3             4.2185-9
 CH2OH           5.327-12
 CH3O            2.807-13
 CH4             8.3549-6
 CH3OH           7.537-10
 *CN             5.136-13
 *CO             1.8328-1
 *CO2            3.3534-2
 COOH            1.8430-9
 C2H2,acetylene  1.341-10
 C2H2,vinylidene 7.538-16
 CH2CO,ketene    7.268-10
 O(CH)2O         3.042-14
 HO(CO)2OH       2.620-16
 C2H3,vinyl      7.372-15
 CH3CN           2.262-11
 CH3CO,acetyl    1.443-13
 C2H4            6.486-11
 CH3CHO,ethanal  2.734-12
 CH3COOH         2.827-13
 C2H5            5.857-15
 C2H6            1.165-12
 C2H5OH          8.609-16
 OCCN            6.090-15
 C2N2            9.560-14
 C2O             2.961-15
 C3H4,allene     1.246-16
 C3H4,propyne    3.431-16
 C3H6,propylene  1.121-16
 C3O2            8.584-14
 *H              6.9168-6
 HCN             3.0592-6
 HCO             1.9894-8
 HCCO            4.032-14
 HNC             5.8496-8
 HNCO            4.8510-7
 HNO             1.369-12
 HNO2            1.154-15
 HO2             2.226-15
 *H2             2.8122-1
 HCHO,formaldehy 3.1279-7
 HCOOH           1.8358-7
 H2O             1.5233-1
 H2O2            1.646-13
 *N              8.330-14
 NCO             3.494-12
 *NH             6.406-12
 NH2             4.1434-9
 NH3             5.9088-5
 NH2OH           2.610-13
 *NO             2.2798-9
 *N2             3.4955-1
 N2H2            1.534-13
 N2H4            3.527-15
 N2O             3.392-13
 N3H             2.584-16
 *O              2.906-12
 *OH             1.6589-7
 *O2             7.206-13

  * THERMODYNAMIC PROPERTIES FITTED TO 20000.K


                     DETONATION PROPERTIES OF AN IDEAL REACTING GAS
 CASE =                

             REACTANT                       MOLES         ENERGY      TEMP
                                                         KJ/KG-MOL      K
 FUEL        CH3OH                        1.0000000   -200858.418    300.000
 OXIDANT     O2                           1.5000000        54.358    300.000
 OXIDANT     N2                           5.6429000        53.881    300.000

 O/F=    1.78651  %FUEL= 35.887203  R,EQ.RATIO= 2.181818  PHI,EQ.RATIO= 3.600000

 UNBURNED GAS

 P1, BAR           1.0000
 T1, K             300.00
 H1, KJ/KG       -2248.43
 M1, (1/n)         29.920
 GAMMA1            1.3212
 SON VEL1,M/SEC     331.9

 BURNED GAS

 P, BAR            13.658
 T, K             1552.64
 RHO, KG/CU M    2.0684 0
 H, KJ/KG        -1414.81
 U, KJ/KG        -2075.14
 G, KJ/KG        -18836.3
 S, KJ/(KG)(K)    11.2205

 M, (1/n)          19.550
 (dLV/dLP)t      -1.00013
 (dLV/dLT)p        1.0008
 Cp, KJ/(KG)(K)    1.9493
 GAMMAs            1.2795
 SON VEL,M/SEC      919.2

 DETONATION PARAMETERS

 P/P1              13.658
 T/T1               5.175
 M/M1              0.6534
 RHO/RHO1          1.7244
 DET MACH NUMBER   4.7758
 DET VEL,M/SEC     1585.0

 MOLE FRACTIONS

 CH2             7.692-14
 CH3             4.5715-9
 CH2OH           4.700-12
 CH3O            2.315-13
 CH4             1.3627-5
 CH3OH           9.396-10
 *CN             3.143-13
 *CO             1.8507-1
 *CO2            3.3872-2
 COOH            1.3633-9
 C2H2,acetylene  1.648-10
 C2H2,vinylidene 6.703-16
 CH2CO,ketene    8.936-10
 O(CH)2O         3.005-14
 HO(CO)2OH       2.394-16
 C2H3,vinyl      8.150-15
 CH3CN           3.711-11
 CH3CO,acetyl    1.669-13
 C2H4            1.127-10
 CH3CHO,ethanal  4.256-12
 CH3COOH         4.230-13
 OHCH2COOH       1.013-16
 C2H5            9.150-15
 C2H6            2.645-12
 C2H5OH          1.544-15
 OCCN            4.517-15
 C2N2            9.545-14
 C2O             1.933-15
 C3H4,allene     2.242-16
 C3H4,propyne    6.250-16
 C3H6,propylene  2.813-16
 C3O2            8.974-14
 *H              4.7267-6
 HCN             3.2497-6
 HCO             1.5446-8
 HCCO            3.266-14
 HNC             5.5566-8
 HNCO            4.9049-7
 HNO             6.991-13
 HNO2            4.895-16
 HO2             8.249-16
 *H2             2.8918-1
 HCHO,formaldehy 3.2249-7
 HCOOH           1.8282-7
 H2O             1.4861-1
 H2O2            8.020-14
 *N              3.536-14
 NCO             2.226-12
 *NH             3.401-12
 NH2             3.0169-9
 NH3             6.6484-5
 NH2OH           1.773-13
 *NO             1.1723-9
 *N2             3.4318-1
 N2H2            1.052-13
 N2H4            3.041-15
 N2O             1.731-13
 N3H             1.481-16
 *O              1.136-12
 *OH             9.6473-8
 *O2             2.691-13

  * THERMODYNAMIC PROPERTIES FITTED TO 20000.K



