
 *******************************************************************************

         NASA-GLENN CHEMICAL EQUILIBRIUM PROGRAM CEA2, MAY 21, 2004
                   BY  BONNIE MCBRIDE AND SANFORD GORDON
      REFS: NASA RP-1311, PART I, 1994 AND NASA RP-1311, PART II, 1996

 *******************************************************************************



 problem    phi,eq.ratio=2.1,2.2,2.3,2.4,2.5,2.6,2.7,2.8,2.9,3,3.1,3.2,3.3,3.4,3.
 5,3.6,
       det   t,k=300,  p,bar=1,
 react
   fuel=CH4 moles=1 t,k=300
   oxid=O2 moles=2 t,k=300
   oxid=N2 moles=7.4549 t,k=300
   oxid=Ar moles=0.0916 t,k=300
 output
      trace=1e-16 siunits short
 end


                     DETONATION PROPERTIES OF AN IDEAL REACTING GAS
 CASE =                

             REACTANT                       MOLES         ENERGY      TEMP
                                                         KJ/KG-MOL      K
 FUEL        CH4                          1.0000000    -74533.907    300.000
 OXIDANT     O2                           2.0000000        54.358    300.000
 OXIDANT     N2                           7.4549000        53.881    300.000
 OXIDANT     Ar                           0.0916000        38.455    300.000

 O/F=    8.20721  %FUEL= 10.861058  R,EQ.RATIO= 2.100000  PHI,EQ.RATIO= 2.100000

 UNBURNED GAS

 P1, BAR           1.0000
 T1, K             300.00
 H1, KJ/KG        -502.95
 M1, (1/n)         26.633
 GAMMA1            1.3782
 SON VEL1,M/SEC     359.3

 BURNED GAS

 P, BAR            14.294
 T, K             2084.07
 RHO, KG/CU M    1.8476 0
 H, KJ/KG          479.31
 U, KJ/KG         -294.32
 G, KJ/KG        -21243.8
 S, KJ/(KG)(K)    10.4234

 M, (1/n)          22.398
 (dLV/dLP)t      -1.00010
 (dLV/dLT)p        1.0024
 Cp, KJ/(KG)(K)    1.7363
 GAMMAs            1.2734
 SON VEL,M/SEC      992.6

 DETONATION PARAMETERS

 P/P1              14.294
 T/T1               6.947
 M/M1              0.8410
 RHO/RHO1          1.7304
 DET MACH NUMBER   4.7806
 DET VEL,M/SEC     1717.5

 MOLE FRACTIONS

 *Ar             6.6143-3
 *C              3.035-15
 *CH             1.956-14
 CH2             3.936-12
 CH3             1.4428-9
 CH2OH           1.027-11
 CH3O            1.102-12
 CH4             4.2557-8
 CH3OH           3.999-11
 *CN             8.652-11
 *CO             1.3383-1
 *CO2            1.7809-2
 COOH            1.9656-8
 C2H             6.573-16
 C2H2,acetylene  1.523-11
 C2H2,vinylidene 2.167-15
 CH2CO,ketene    5.860-11
 O(CH)2O         1.612-14
 HO(CO)2OH       1.597-16
 C2H3,vinyl      2.110-15
 CH3CN           1.329-13
 CH3CO,acetyl    1.931-14
 C2H4            1.745-13
 CH3CHO,ethanal  1.604-14
 CH3COOH         1.827-15
 C2H6            1.671-16
 OCCN            1.090-13
 C2N2            1.314-13
 C2O             1.794-13
 C3O2            3.387-14
 *H              3.2032-4
 HCN             1.7900-6
 HCO             1.7962-7
 HCCO            2.452-13
 HNC             1.0501-7
 HNCO            3.3286-7
 HNO             9.085-10
 HNO2            3.497-12
 HO2             2.423-11
 *H2             1.8372-1
 HCHO,formaldehy 1.4453-7
 HCOOH           8.9033-8
 H2O             1.1936-1
 H2O2            1.006-10
 *N              5.606-10
 NCO             2.859-10
 *NH             3.9228-9
 NH2             9.2872-8
 NH3             1.4619-5
 NH2OH           7.637-12
 *NO             1.5714-6
 NO2             1.796-12
 *N2             5.3830-1
 NCN             2.037-15
 N2H2            7.023-12
 N2H4            1.218-14
 N2O             2.755-10
 N3              8.428-15
 N3H             8.525-14
 *O              2.9941-8
 *OH             2.7103-5
 *O2             8.3006-9

  * THERMODYNAMIC PROPERTIES FITTED TO 20000.K


                     DETONATION PROPERTIES OF AN IDEAL REACTING GAS
 CASE =                

             REACTANT                       MOLES         ENERGY      TEMP
                                                         KJ/KG-MOL      K
 FUEL        CH4                          1.0000000    -74533.907    300.000
 OXIDANT     O2                           2.0000000        54.358    300.000
 OXIDANT     N2                           7.4549000        53.881    300.000
 OXIDANT     Ar                           0.0916000        38.455    300.000

 O/F=    7.83415  %FUEL= 11.319706  R,EQ.RATIO= 2.200000  PHI,EQ.RATIO= 2.200000

 UNBURNED GAS

 P1, BAR           1.0000
 T1, K             300.00
 H1, KJ/KG        -524.27
 M1, (1/n)         26.543
 GAMMA1            1.3774
 SON VEL1,M/SEC     359.8

 BURNED GAS

 P, BAR            13.906
 T, K             2006.48
 RHO, KG/CU M    1.8370 0
 H, KJ/KG          433.43
 U, KJ/KG         -323.58
 G, KJ/KG        -20608.0
 S, KJ/(KG)(K)    10.4867

 M, (1/n)          22.038
 (dLV/dLP)t      -1.00008
 (dLV/dLT)p        1.0016
 Cp, KJ/(KG)(K)    1.7398
 GAMMAs            1.2779
 SON VEL,M/SEC      983.5

 DETONATION PARAMETERS

 P/P1              13.906
 T/T1               6.688
 M/M1              0.8303
 RHO/RHO1          1.7263
 DET MACH NUMBER   4.7194
 DET VEL,M/SEC     1697.9

 MOLE FRACTIONS

 *Ar             6.4745-3
 *C              1.006-15
 *CH             8.814-15
 CH2             2.929-12
 CH3             1.9180-9
 CH2OH           9.564-12
 CH3O            9.362-13
 CH4             9.5378-8
 CH3OH           5.834-11
 *CN             5.276-11
 *CO             1.3885-1
 *CO2            1.6647-2
 COOH            1.2718-8
 C2H             5.066-16
 C2H2,acetylene  2.584-11
 C2H2,vinylidene 2.467-15
 CH2CO,ketene    9.007-11
 O(CH)2O         1.699-14
 HO(CO)2OH       1.243-16
 C2H3,vinyl      3.208-15
 CH3CN           3.278-13
 CH3CO,acetyl    2.793-14
 C2H4            4.750-13
 CH3CHO,ethanal  3.439-14
 CH3COOH         3.347-15
 C2H6            6.596-16
 OCCN            8.527-14
 C2N2            1.631-13
 C2O             1.201-13
 C3O2            4.110-14
 *H              2.0429-4
 HCN             2.2124-6
 HCO             1.3693-7
 HCCO            2.195-13
 HNC             1.1297-7
 HNCO            3.5022-7
 HNO             3.625-10
 HNO2            1.004-12
 HO2             5.923-12
 *H2             2.0030-1
 HCHO,formaldehy 1.5988-7
 HCOOH           8.4666-8
 H2O             1.1057-1
 H2O2            3.533-11
 *N              1.926-10
 NCO             1.652-10
 *NH             1.8264-9
 NH2             6.5511-8
 NH3             1.8126-5
 NH2OH           4.525-12
 *NO             6.2313-7
 NO2             3.909-13
 *N2             5.2692-1
 NCN             1.031-15
 N2H2            4.524-12
 N2H4            1.094-14
 N2O             1.071-10
 N3              2.996-15
 N3H             4.309-14
 *O              8.4397-9
 *OH             1.2868-5
 *O2             2.0058-9

  * THERMODYNAMIC PROPERTIES FITTED TO 20000.K


                     DETONATION PROPERTIES OF AN IDEAL REACTING GAS
 CASE =                

             REACTANT                       MOLES         ENERGY      TEMP
                                                         KJ/KG-MOL      K
 FUEL        CH4                          1.0000000    -74533.907    300.000
 OXIDANT     O2                           2.0000000        54.358    300.000
 OXIDANT     N2                           7.4549000        53.881    300.000
 OXIDANT     Ar                           0.0916000        38.455    300.000

 O/F=    7.49354  %FUEL= 11.773659  R,EQ.RATIO= 2.300000  PHI,EQ.RATIO= 2.300000

 UNBURNED GAS

 P1, BAR           1.0000
 T1, K             300.00
 H1, KJ/KG        -545.37
 M1, (1/n)         26.454
 GAMMA1            1.3766
 SON VEL1,M/SEC     360.3

 BURNED GAS

 P, BAR            13.515
 T, K             1930.31
 RHO, KG/CU M    1.8266 0
 H, KJ/KG          387.16
 U, KJ/KG         -352.71
 G, KJ/KG        -19970.7
 S, KJ/(KG)(K)    10.5464

 M, (1/n)          21.692
 (dLV/dLP)t      -1.00006
 (dLV/dLT)p        1.0010
 Cp, KJ/(KG)(K)    1.7450
 GAMMAs            1.2821
 SON VEL,M/SEC      974.0

 DETONATION PARAMETERS

 P/P1              13.515
 T/T1               6.434
 M/M1              0.8200
 RHO/RHO1          1.7223
 DET MACH NUMBER   4.6561
 DET VEL,M/SEC     1677.5

 MOLE FRACTIONS

 *Ar             6.3404-3
 *C              3.059-16
 *CH             3.683-15
 CH2             2.068-12
 CH3             2.4877-9
 CH2OH           8.640-12
 CH3O            7.680-13
 CH4             2.1409-7
 CH3OH           8.428-11
 *CN             3.063-11
 *CO             1.4354-1
 *CO2            1.5662-2
 COOH            8.0450-9
 C2H             3.666-16
 C2H2,acetylene  4.285-11
 C2H2,vinylidene 2.680-15
 CH2CO,ketene    1.367-10
 O(CH)2O         1.757-14
 C2H3,vinyl      4.705-15
 CH3CN           8.048-13
 CH3CO,acetyl    3.950-14
 C2H4            1.283-12
 CH3CHO,ethanal  7.327-14
 CH3COOH         6.138-15
 C2H5            2.340-16
 C2H6            2.607-15
 OCCN            6.419-14
 C2N2            1.975-13
 C2O             7.656-14
 C3O2            4.904-14
 *H              1.2595-4
 HCN             2.6978-6
 HCO             1.0140-7
 HCCO            1.890-13
 HNC             1.1888-7
 HNCO            3.6565-7
 HNO             1.383-10
 HNO2            2.744-13
 HO2             1.362-12
 *H2             2.1630-1
 HCHO,formaldehy 1.7457-7
 HCOOH           8.0081-8
 H2O             1.0201-1
 H2O2            1.184-11
 *N              6.214-11
 NCO             9.209-11
 *NH             8.071-10
 NH2             4.4655-8
 NH3             2.2311-5
 NH2OH           2.590-12
 *NO             2.3755-7
 NO2             8.016-14
 *N2             5.1600-1
 NCN             4.921-16
 N2H2            2.811-12
 N2H4            9.531-15
 N2O             4.011-11
 N3              1.005-15
 N3H             2.085-14
 *O              2.2390-9
 *OH             5.8870-6
 *O2             4.589-10

  * THERMODYNAMIC PROPERTIES FITTED TO 20000.K


                     DETONATION PROPERTIES OF AN IDEAL REACTING GAS
 CASE =                

             REACTANT                       MOLES         ENERGY      TEMP
                                                         KJ/KG-MOL      K
 FUEL        CH4                          1.0000000    -74533.907    300.000
 OXIDANT     O2                           2.0000000        54.358    300.000
 OXIDANT     N2                           7.4549000        53.881    300.000
 OXIDANT     Ar                           0.0916000        38.455    300.000

 O/F=    7.18131  %FUEL= 12.222988  R,EQ.RATIO= 2.400000  PHI,EQ.RATIO= 2.400000

 UNBURNED GAS

 P1, BAR           1.0000
 T1, K             300.00
 H1, KJ/KG        -566.25
 M1, (1/n)         26.367
 GAMMA1            1.3758
 SON VEL1,M/SEC     360.8

 BURNED GAS

 P, BAR            13.119
 T, K             1855.55
 RHO, KG/CU M    1.8164 0
 H, KJ/KG          340.53
 U, KJ/KG         -381.73
 G, KJ/KG        -19332.8
 S, KJ/(KG)(K)    10.6024

 M, (1/n)          21.361
 (dLV/dLP)t      -1.00005
 (dLV/dLT)p        1.0007
 Cp, KJ/(KG)(K)    1.7512
 GAMMAs            1.2862
 SON VEL,M/SEC      963.8

 DETONATION PARAMETERS

 P/P1              13.119
 T/T1               6.185
 M/M1              0.8101
 RHO/RHO1          1.7183
 DET MACH NUMBER   4.5906
 DET VEL,M/SEC     1656.2

 MOLE FRACTIONS

 *Ar             6.2116-3
 *CH             1.424-15
 CH2             1.386-12
 CH3             3.1636-9
 CH2OH           7.585-12
 CH3O            6.095-13
 CH4             4.8536-7
 CH3OH           1.212-10
 *CN             1.691-11
 *CO             1.4793-1
 *CO2            1.4817-2
 COOH            4.9646-9
 C2H             2.498-16
 C2H2,acetylene  7.000-11
 C2H2,vinylidene 2.790-15
 CH2CO,ketene    2.058-10
 O(CH)2O         1.786-14
 C2H3,vinyl      6.703-15
 CH3CN           1.985-12
 CH3CO,acetyl    5.494-14
 C2H4            3.479-12
 CH3CHO,ethanal  1.565-13
 CH3COOH         1.135-14
 C2H5            5.516-16
 C2H6            1.047-14
 OCCN            4.653-14
 C2N2            2.346-13
 C2O             4.647-14
 C3O2            5.773-14
 *H              7.4934-5
 HCN             3.2565-6
 HCO             7.2931-8
 HCCO            1.569-13
 HNC             1.2271-7
 HNCO            3.7939-7
 HNO             5.020-11
 HNO2            7.079-14
 HO2             2.922-13
 *H2             2.3173-1
 HCHO,formaldehy 1.8856-7
 HCOOH           7.5388-8
 H2O             9.3684-2
 H2O2            3.768-12
 *N              1.872-11
 NCO             4.937-11
 *NH             3.374-10
 NH2             2.9398-8
 NH3             2.7345-5
 NH2OH           1.429-12
 *NO             8.6548-8
 NO2             1.534-14
 *N2             5.0552-1
 NCN             2.212-16
 N2H2            1.683-12
 N2H4            8.064-15
 N2O             1.437-11
 N3              3.166-16
 N3H             9.627-15
 *O              5.548-10
 *OH             2.5839-6
 *O2             9.843-11

  * THERMODYNAMIC PROPERTIES FITTED TO 20000.K


                     DETONATION PROPERTIES OF AN IDEAL REACTING GAS
 CASE =                

             REACTANT                       MOLES         ENERGY      TEMP
                                                         KJ/KG-MOL      K
 FUEL        CH4                          1.0000000    -74533.907    300.000
 OXIDANT     O2                           2.0000000        54.358    300.000
 OXIDANT     N2                           7.4549000        53.881    300.000
 OXIDANT     Ar                           0.0916000        38.455    300.000

 O/F=    6.89405  %FUEL= 12.667764  R,EQ.RATIO= 2.500000  PHI,EQ.RATIO= 2.500000

 UNBURNED GAS

 P1, BAR           1.0000
 T1, K             300.00
 H1, KJ/KG        -586.93
 M1, (1/n)         26.281
 GAMMA1            1.3751
 SON VEL1,M/SEC     361.3

 BURNED GAS

 P, BAR            12.719
 T, K             1782.16
 RHO, KG/CU M    1.8062 0
 H, KJ/KG          293.56
 U, KJ/KG         -410.65
 G, KJ/KG        -18695.1
 S, KJ/(KG)(K)    10.6548

 M, (1/n)          21.042
 (dLV/dLP)t      -1.00005
 (dLV/dLT)p        1.0005
 Cp, KJ/(KG)(K)    1.7580
 GAMMAs            1.2902
 SON VEL,M/SEC      953.2

 DETONATION PARAMETERS

 P/P1              12.719
 T/T1               5.941
 M/M1              0.8006
 RHO/RHO1          1.7142
 DET MACH NUMBER   4.5231
 DET VEL,M/SEC     1634.0

 MOLE FRACTIONS

 *Ar             6.0879-3
 *CH             5.080-16
 CH2             8.831-13
 CH3             3.9603-9
 CH2OH           6.478-12
 CH3O            4.683-13
 CH4             1.1198-6
 CH3OH           1.741-10
 *CN             8.857-12
 *CO             1.5206-1
 *CO2            1.4085-2
 COOH            2.9811-9
 C2H             1.605-16
 C2H2,acetylene  1.133-10
 C2H2,vinylidene 2.795-15
 CH2CO,ketene    3.093-10
 O(CH)2O         1.790-14
 C2H3,vinyl      9.333-15
 CH3CN           4.967-12
 CH3CO,acetyl    7.554-14
 C2H4            9.557-12
 CH3CHO,ethanal  3.377-13
 CH3COOH         2.129-14
 C2H5            1.300-15
 C2H6            4.324-14
 OCCN            3.249-14
 C2N2            2.743-13
 C2O             2.684-14
 C3O2            6.728-14
 *H              4.2924-5
 HCN             3.9027-6
 HCO             5.0892-8
 HCCO            1.258-13
 HNC             1.2450-7
 HNCO            3.9167-7
 HNO             1.723-11
 HNO2            1.710-14
 HO2             5.787-14
 *H2             2.4662-1
 HCHO,formaldehy 2.0186-7
 HCOOH           7.0662-8
 H2O             8.5611-2
 H2O2            1.129-12
 *N              5.236-12
 NCO             2.539-11
 *NH             1.329-10
 NH2             1.8667-8
 NH3             3.3456-5
 NH2OH           7.590-13
 *NO             2.9948-8
 NO2             2.709-15
 *N2             4.9545-1
 N2H2            9.694-13
 N2H4            6.636-15
 N2O             4.894-12
 N3H             4.230-15
 *O              1.273-10
 *OH             1.0827-6
 *O2             1.960-11

  * THERMODYNAMIC PROPERTIES FITTED TO 20000.K


                     DETONATION PROPERTIES OF AN IDEAL REACTING GAS
 CASE =                

             REACTANT                       MOLES         ENERGY      TEMP
                                                         KJ/KG-MOL      K
 FUEL        CH4                          1.0000000    -74533.907    300.000
 OXIDANT     O2                           2.0000000        54.358    300.000
 OXIDANT     N2                           7.4549000        53.881    300.000
 OXIDANT     Ar                           0.0916000        38.455    300.000

 O/F=    6.62890  %FUEL= 13.108054  R,EQ.RATIO= 2.600000  PHI,EQ.RATIO= 2.600000

 UNBURNED GAS

 P1, BAR           1.0000
 T1, K             300.00
 H1, KJ/KG        -607.39
 M1, (1/n)         26.197
 GAMMA1            1.3743
 SON VEL1,M/SEC     361.7

 BURNED GAS

 P, BAR            12.316
 T, K             1710.10
 RHO, KG/CU M    1.7960 0
 H, KJ/KG          246.24
 U, KJ/KG         -439.47
 G, KJ/KG        -18058.0
 S, KJ/(KG)(K)    10.7036

 M, (1/n)          20.735
 (dLV/dLP)t      -1.00006
 (dLV/dLT)p        1.0004
 Cp, KJ/(KG)(K)    1.7653
 GAMMAs            1.2941
 SON VEL,M/SEC      942.0

 DETONATION PARAMETERS

 P/P1              12.316
 T/T1               5.700
 M/M1              0.7915
 RHO/RHO1          1.7101
 DET MACH NUMBER   4.4534
 DET VEL,M/SEC     1610.9

 MOLE FRACTIONS

 *Ar             5.9690-3
 *CH             1.664-16
 CH2             5.338-13
 CH3             4.8967-9
 CH2OH           5.385-12
 CH3O            3.483-13
 CH4             2.6490-6
 CH3OH           2.509-10
 *CN             4.391-12
 *CO             1.5597-1
 *CO2            1.3445-2
 COOH            1.7366-9
 C2H2,acetylene  1.829-10
 C2H2,vinylidene 2.702-15
 CH2CO,ketene    4.659-10
 O(CH)2O         1.770-14
 C2H3,vinyl      1.276-14
 CH3CN           1.271-11
 CH3CO,acetyl    1.031-13
 C2H4            2.686-11
 CH3CHO,ethanal  7.420-13
 CH3COOH         4.079-14
 C2H5            3.088-15
 C2H6            1.862-13
 C2H5OH          1.310-16
 OCCN            2.184-14
 C2N2            3.168-13
 C2O             1.472-14
 C3H4,propyne    1.956-16
 C3O2            7.784-14
 *H              2.3604-5
 HCN             4.6551-6
 HCO             3.4405-8
 HCCO            9.737-14
 HNC             1.2434-7
 HNCO            4.0271-7
 HNO             5.559-12
 HNO2            3.832-15
 HO2             1.047-14
 *H2             2.6098-1
 HCHO,formaldehy 2.1446-7
 HCOOH           6.5958-8
 H2O             7.7791-2
 H2O2            3.163-13
 *N              1.348-12
 NCO             1.249-11
 *NH             4.904-11
 NH2             1.1411-8
 NH3             4.0954-5
 NH2OH           3.865-13
 *NO             9.7736-9
 NO2             4.366-16
 *N2             4.8577-1
 N2H2            5.362-13
 N2H4            5.314-15
 N2O             1.575-12
 N3H             1.761-15
 *O              2.681-11
 *OH             4.3069-7
 *O2             3.582-12

  * THERMODYNAMIC PROPERTIES FITTED TO 20000.K


                     DETONATION PROPERTIES OF AN IDEAL REACTING GAS
 CASE =                

             REACTANT                       MOLES         ENERGY      TEMP
                                                         KJ/KG-MOL      K
 FUEL        CH4                          1.0000000    -74533.907    300.000
 OXIDANT     O2                           2.0000000        54.358    300.000
 OXIDANT     N2                           7.4549000        53.881    300.000
 OXIDANT     Ar                           0.0916000        38.455    300.000

 O/F=    6.38338  %FUEL= 13.543928  R,EQ.RATIO= 2.700000  PHI,EQ.RATIO= 2.700000

 UNBURNED GAS

 P1, BAR           1.0000
 T1, K             300.00
 H1, KJ/KG        -627.65
 M1, (1/n)         26.114
 GAMMA1            1.3736
 SON VEL1,M/SEC     362.2

 BURNED GAS

 P, BAR            11.909
 T, K             1639.33
 RHO, KG/CU M    1.7859 0
 H, KJ/KG          198.61
 U, KJ/KG         -468.20
 G, KJ/KG        -17422.1
 S, KJ/(KG)(K)    10.7487

 M, (1/n)          20.441
 (dLV/dLP)t      -1.00009
 (dLV/dLT)p        1.0005
 Cp, KJ/(KG)(K)    1.7728
 GAMMAs            1.2980
 SON VEL,M/SEC      930.3

 DETONATION PARAMETERS

 P/P1              11.909
 T/T1               5.464
 M/M1              0.7827
 RHO/RHO1          1.7058
 DET MACH NUMBER   4.3815
 DET VEL,M/SEC     1587.0

 MOLE FRACTIONS

 *Ar             5.8547-3
 CH2             3.056-13
 CH3             5.9975-9
 CH2OH           4.355-12
 CH3O            2.506-13
 CH4             6.4723-6
 CH3OH           3.641-10
 *CN             2.053-12
 *CO             1.5968-1
 *CO2            1.2880-2
 COOH            9.780-10
 C2H2,acetylene  2.959-10
 C2H2,vinylidene 2.526-15
 CH2CO,ketene    7.064-10
 O(CH)2O         1.730-14
 C2H3,vinyl      1.722-14
 CH3CN           3.358-11
 CH3CO,acetyl    1.404-13
 C2H4            7.799-11
 CH3CHO,ethanal  1.672-12
 CH3COOH         8.026-14
 C2H5            7.466-15
 C2H6            8.469-13
 C2H5OH          3.739-16
 OCCN            1.411-14
 C2N2            3.625-13
 C2O             7.642-15
 C3H3,2-propynl  1.149-16
 C3H4,allene     2.416-16
 C3H4,propyne    6.547-16
 C3H6,propylene  1.207-16
 C3O2            8.965-14
 *H              1.2417-5
 HCN             5.5393-6
 HCO             2.2487-8
 HCCO            7.278-14
 HNC             1.2238-7
 HNCO            4.1271-7
 HNO             1.672-12
 HNO2            7.886-16
 HO2             1.711-15
 *H2             2.7483-1
 HCHO,formaldehy 2.2639-7
 HCOOH           6.1310-8
 H2O             7.0223-2
 H2O2            8.209-14
 *N              3.171-13
 NCO             5.847-12
 *NH             1.686-11
 NH2             6.6972-9
 NH3             5.0261-5
 NH2OH           1.880-13
 *NO             2.9853-9
 *N2             4.7646-1
 N2H2            2.839-13
 N2H4            4.141-15
 N2O             4.751-13
 N3H             6.909-16
 *O              5.125-12
 *OH             1.6162-7
 *O2             5.940-13

  * THERMODYNAMIC PROPERTIES FITTED TO 20000.K


                     DETONATION PROPERTIES OF AN IDEAL REACTING GAS
 CASE =                

             REACTANT                       MOLES         ENERGY      TEMP
                                                         KJ/KG-MOL      K
 FUEL        CH4                          1.0000000    -74533.907    300.000
 OXIDANT     O2                           2.0000000        54.358    300.000
 OXIDANT     N2                           7.4549000        53.881    300.000
 OXIDANT     Ar                           0.0916000        38.455    300.000

 O/F=    6.15540  %FUEL= 13.975450  R,EQ.RATIO= 2.800000  PHI,EQ.RATIO= 2.800000

 UNBURNED GAS

 P1, BAR           1.0000
 T1, K             300.00
 H1, KJ/KG        -647.71
 M1, (1/n)         26.033
 GAMMA1            1.3729
 SON VEL1,M/SEC     362.7

 BURNED GAS

 P, BAR            11.498
 T, K             1569.91
 RHO, KG/CU M    1.7756 0
 H, KJ/KG          150.84
 U, KJ/KG         -496.70
 G, KJ/KG        -16788.9
 S, KJ/(KG)(K)    10.7902

 M, (1/n)          20.158
 (dLV/dLP)t      -1.00014
 (dLV/dLT)p        1.0009
 Cp, KJ/(KG)(K)    1.7811
 GAMMAs            1.3019
 SON VEL,M/SEC      918.2

 DETONATION PARAMETERS

 P/P1              11.498
 T/T1               5.233
 M/M1              0.7743
 RHO/RHO1          1.7013
 DET MACH NUMBER   4.3069
 DET VEL,M/SEC     1562.1

 MOLE FRACTIONS

 *Ar             5.7448-3
 CH2             1.655-13
 CH3             7.2950-9
 CH2OH           3.427-12
 CH3O            1.743-13
 CH4             1.6437-5
 CH3OH           5.337-10
 *CN             9.026-13
 *CO             1.6321-1
 *CO2            1.2372-2
 COOH            5.307-10
 C2H2,acetylene  4.819-10
 C2H2,vinylidene 2.287-15
 CH2CO,ketene    1.0820-9
 O(CH)2O         1.673-14
 C2H3,vinyl      2.302-14
 CH3CN           9.225-11
 CH3CO,acetyl    1.912-13
 C2H4            2.358-10
 CH3CHO,ethanal  3.887-12
 CH3COOH         1.631-13
 C2H5            1.850-14
 C2H6            4.111-12
 C2H5OH          1.112-15
 OCCN            8.762-15
 C2N2            4.120-13
 C2O             3.751-15
 C3H3,2-propynl  2.432-16
 C3H4,allene     8.242-16
 C3H4,propyne    2.284-15
 C3H6,propylene  7.448-16
 C3O2            1.030-13
 *H              6.2302-6
 HCN             6.5898-6
 HCO             1.4184-8
 HCCO            5.253-14
 HNC             1.1885-7
 HNCO            4.2185-7
 HNO             4.660-13
 HNO2            1.476-16
 HO2             2.498-16
 *H2             2.8817-1
 HCHO,formaldehy 2.3764-7
 HCOOH           5.6736-8
 H2O             6.2910-2
 H2O2            1.959-14
 *N              6.764-14
 NCO             2.597-12
 *NH             5.372-12
 NH2             3.7653-9
 NH3             6.1940-5
 NH2OH           8.704-14
 *NO             8.478-10
 *N2             4.6751-1
 N2H2            1.435-13
 N2H4            3.139-15
 N2O             1.335-13
 N3H             2.545-16
 *O              8.813-13
 *OH             5.6894-8
 *O2             8.840-14

  * THERMODYNAMIC PROPERTIES FITTED TO 20000.K


                     DETONATION PROPERTIES OF AN IDEAL REACTING GAS
 CASE =                

             REACTANT                       MOLES         ENERGY      TEMP
                                                         KJ/KG-MOL      K
 FUEL        CH4                          1.0000000    -74533.907    300.000
 OXIDANT     O2                           2.0000000        54.358    300.000
 OXIDANT     N2                           7.4549000        53.881    300.000
 OXIDANT     Ar                           0.0916000        38.455    300.000

 O/F=    5.94315  %FUEL= 14.402686  R,EQ.RATIO= 2.900000  PHI,EQ.RATIO= 2.900000

 UNBURNED GAS

 P1, BAR           1.0000
 T1, K             300.00
 H1, KJ/KG        -667.56
 M1, (1/n)         25.952
 GAMMA1            1.3722
 SON VEL1,M/SEC     363.2

 BURNED GAS

 P, BAR            11.086
 T, K             1501.75
 RHO, KG/CU M    1.7655 0
 H, KJ/KG          102.75
 U, KJ/KG         -525.15
 G, KJ/KG        -16158.0
 S, KJ/(KG)(K)    10.8279

 M, (1/n)          19.886
 (dLV/dLP)t      -1.00026
 (dLV/dLT)p        1.0020
 Cp, KJ/(KG)(K)    1.7919
 GAMMAs            1.3055
 SON VEL,M/SEC      905.4

 DETONATION PARAMETERS

 P/P1              11.086
 T/T1               5.006
 M/M1              0.7662
 RHO/RHO1          1.6969
 DET MACH NUMBER   4.2305
 DET VEL,M/SEC     1536.3

 MOLE FRACTIONS

 *Ar             5.6391-3
 CH2             8.442-14
 CH3             8.8345-9
 CH2OH           2.620-12
 CH3O            1.170-13
 CH4             4.3760-5
 CH3OH           7.931-10
 *CN             3.710-13
 *CO             1.6657-1
 *CO2            1.1911-2
 COOH            2.762-10
 C2H2,acetylene  7.946-10
 C2H2,vinylidene 2.007-15
 CH2CO,ketene    1.6826-9
 O(CH)2O         1.602-14
 C2H3,vinyl      3.062-14
 CH3CN           2.662-10
 CH3CO,acetyl    2.615-13
 C2H4            7.504-10
 CH3CHO,ethanal  9.403-12
 CH3COOH         3.445-13
 C2H5            4.742-14
 C2H6            2.162-11
 C2H5OH          3.487-15
 OCCN            5.212-15
 C2N2            4.667-13
 C2O             1.732-15
 C3H3,2-propynl  5.252-16
 C3H4,allene     2.964-15
 C3H4,propyne    8.415-15
 C3H6,propylene  5.029-15
 C3O2            1.184-13
 *H              2.9654-6
 HCN             7.8554-6
 HCO             8.6052-9
 HCCO            3.656-14
 HNC             1.1397-7
 HNCO            4.3038-7
 HNO             1.191-13
 *H2             3.0099-1
 HCHO,formaldehy 2.4827-7
 HCOOH           5.2261-8
 H2O             5.5860-2
 H2O2            4.244-15
 *N              1.292-14
 NCO             1.088-12
 *NH             1.572-12
 NH2             2.0193-9
 NH3             7.6813-5
 NH2OH           3.814-14
 *NO             2.215-10
 *N2             4.5890-1
 N2H2            6.894-14
 N2H4            2.312-15
 N2O             3.458-14
 *O              1.344-13
 *OH             1.8624-8
 *O2             1.162-14

  * THERMODYNAMIC PROPERTIES FITTED TO 20000.K


                     DETONATION PROPERTIES OF AN IDEAL REACTING GAS
 CASE =                

             REACTANT                       MOLES         ENERGY      TEMP
                                                         KJ/KG-MOL      K
 FUEL        CH4                          1.0000000    -74533.907    300.000
 OXIDANT     O2                           2.0000000        54.358    300.000
 OXIDANT     N2                           7.4549000        53.881    300.000
 OXIDANT     Ar                           0.0916000        38.455    300.000

 O/F=    5.74504  %FUEL= 14.825699  R,EQ.RATIO= 3.000000  PHI,EQ.RATIO= 3.000000

 UNBURNED GAS

 P1, BAR           1.0000
 T1, K             300.00
 H1, KJ/KG        -687.22
 M1, (1/n)         25.873
 GAMMA1            1.3715
 SON VEL1,M/SEC     363.6

 BURNED GAS

 P, BAR            10.676
 T, K             1435.20
 RHO, KG/CU M    1.7558 0
 H, KJ/KG          54.713
 U, KJ/KG         -553.32
 G, KJ/KG        -15534.1
 S, KJ/(KG)(K)    10.8618

 M, (1/n)          19.626
 (dLV/dLP)t      -1.00059
 (dLV/dLT)p        1.0052
 Cp, KJ/(KG)(K)    1.8115
 GAMMAs            1.3084
 SON VEL,M/SEC      891.9

 DETONATION PARAMETERS

 P/P1              10.676
 T/T1               4.784
 M/M1              0.7585
 RHO/RHO1          1.6927
 DET MACH NUMBER   4.1520
 DET VEL,M/SEC     1509.8

 MOLE FRACTIONS

 *Ar             5.5379-3
 CH2             4.059-14
 CH3             1.0671-8
 CH2OH           1.947-12
 CH3O            7.579-14
 CH4             1.2246-4
 CH3OH           1.1960-9
 *CN             1.426-13
 *CO             1.6976-1
 *CO2            1.1482-2
 COOH            1.377-10
 C2H2,acetylene  1.3312-9
 C2H2,vinylidene 1.713-15
 CH2CO,ketene    2.6622-9
 O(CH)2O         1.520-14
 C2H3,vinyl      4.063-14
 CH3CN           8.104-10
 CH3CO,acetyl    3.603-13
 C2H4            2.5241-9
 C2H4O,ethylen-o 1.184-16
 CH3CHO,ethanal  2.375-11
 CH3COOH         7.588-13
 C2H5            1.263-13
 C2H6            1.238-10
 C2H5OH          1.156-14
 OCCN            2.974-15
 C2N2            5.284-13
 C2O             7.528-16
 C3H3,2-propynl  1.164-15
 C3H4,allene     1.130-14
 C3H4,propyne    3.291-14
 C3H5,allyl      3.487-16
 C3H6,propylene  3.740-14
 C3H6O,acetone   2.140-16
 C3H8            3.694-16
 C3O2            1.363-13
 *H              1.3383-6
 HCN             9.3982-6
 HCO             5.0206-9
 HCCO            2.456-14
 HNC             1.0806-7
 HNCO            4.3849-7
 HNO             2.785-14
 *H2             3.1324-1
 HCHO,formaldehy 2.5827-7
 HCOOH           4.7905-8
 H2O             4.9107-2
 H2O2            8.328-16
 *N              2.209-15
 NCO             4.300-13
 *NH             4.223-13
 NH2             1.0327-9
 NH3             9.5910-5
 NH2OH           1.580-14
 *NO             5.314-11
 *N2             4.5065-1
 N2H2            3.147-14
 N2H4            1.656-15
 N2O             8.245-15
 *O              1.813-14
 *OH             5.6584-9
 *O2             1.343-15

  * THERMODYNAMIC PROPERTIES FITTED TO 20000.K


                     DETONATION PROPERTIES OF AN IDEAL REACTING GAS
 CASE =                

             REACTANT                       MOLES         ENERGY      TEMP
                                                         KJ/KG-MOL      K
 FUEL        CH4                          1.0000000    -74533.907    300.000
 OXIDANT     O2                           2.0000000        54.358    300.000
 OXIDANT     N2                           7.4549000        53.881    300.000
 OXIDANT     Ar                           0.0916000        38.455    300.000

 O/F=    5.55972  %FUEL= 15.244552  R,EQ.RATIO= 3.100000  PHI,EQ.RATIO= 3.100000

 UNBURNED GAS

 P1, BAR           1.0000
 T1, K             300.00
 H1, KJ/KG        -706.69
 M1, (1/n)         25.796
 GAMMA1            1.3709
 SON VEL1,M/SEC     364.1

 BURNED GAS

 P, BAR            10.281
 T, K             1371.37
 RHO, KG/CU M    1.7475 0
 H, KJ/KG          7.5675
 U, KJ/KG         -580.76
 G, KJ/KG        -14929.1
 S, KJ/(KG)(K)    10.8918

 M, (1/n)          19.381
 (dLV/dLP)t      -1.00153
 (dLV/dLT)p        1.0149
 Cp, KJ/(KG)(K)    1.8608
 GAMMAs            1.3088
 SON VEL,M/SEC      877.5

 DETONATION PARAMETERS

 P/P1              10.281
 T/T1               4.571
 M/M1              0.7513
 RHO/RHO1          1.6897
 DET MACH NUMBER   4.0725
 DET VEL,M/SEC     1482.7

 MOLE FRACTIONS

 *Ar             5.4419-3
 CH2             1.863-14
 CH3             1.2856-8
 CH2OH           1.414-12
 CH3O            4.774-14
 CH4             3.5638-4
 CH3OH           1.8238-9
 *CN             5.201-14
 *CO             1.7272-1
 *CO2            1.1077-2
 COOH            6.631-11
 C2H2,acetylene  2.2599-9
 C2H2,vinylidene 1.430-15
 CH2CO,ketene    4.2727-9
 O(CH)2O         1.434-14
 C2H3,vinyl      5.387-14
 CH3CN           2.5772-9
 CH3CO,acetyl    4.995-13
 C2H4            8.8776-9
 C2H4O,ethylen-o 1.980-16
 CH3CHO,ethanal  6.206-11
 CH3COOH         1.728-12
 C2H5            3.470-13
 C2H6            7.586-10
 C2H5OH          4.010-14
 OCCN            1.645-15
 C2N2            5.995-13
 C2O             3.122-16
 C3H3,2-propynl  2.637-15
 C3H4,allene     4.522-14
 C3H4,propyne    1.352-13
 C3H5,allyl      1.552-15
 C3H6,propylene  3.007-13
 C3H6,cyclo-     4.075-16
 C3H6O,acetone   1.382-15
 C3H6O,propanal  3.256-16
 C3H8            4.914-15
 C3O2            1.576-13
 *H              5.7871-7
 HCN             1.1283-5
 HCO             2.8385-9
 HCCO            1.606-14
 HNC             1.0161-7
 HNCO            4.4641-7
 HNO             6.066-15
 *H2             3.2468-1
 HCHO,formaldehy 2.6764-7
 HCOOH           4.3741-8
 H2O             4.2760-2
 H2O2            1.508-16
 *N              3.456-16
 NCO             1.623-13
 *NH             1.059-13
 NH2             5.083-10
 NH3             1.2032-4
 NH2OH           6.255-15
 *NO             1.191-11
 *N2             4.4283-1
 N2H2            1.381-14
 N2H4            1.161-15
 N2O             1.842-15
 *O              2.217-15
 *OH             1.6183-9
 *O2             1.402-16

  * THERMODYNAMIC PROPERTIES FITTED TO 20000.K


                     DETONATION PROPERTIES OF AN IDEAL REACTING GAS
 CASE =                

             REACTANT                       MOLES         ENERGY      TEMP
                                                         KJ/KG-MOL      K
 FUEL        CH4                          1.0000000    -74533.907    300.000
 OXIDANT     O2                           2.0000000        54.358    300.000
 OXIDANT     N2                           7.4549000        53.881    300.000
 OXIDANT     Ar                           0.0916000        38.455    300.000

 O/F=    5.38598  %FUEL= 15.659306  R,EQ.RATIO= 3.200000  PHI,EQ.RATIO= 3.200000

 UNBURNED GAS

 P1, BAR           1.0000
 T1, K             300.00
 H1, KJ/KG        -725.97
 M1, (1/n)         25.719
 GAMMA1            1.3702
 SON VEL1,M/SEC     364.5

 BURNED GAS

 P, BAR            9.9350
 T, K             1313.34
 RHO, KG/CU M    1.7434 0
 H, KJ/KG         -36.436
 U, KJ/KG         -606.31
 G, KJ/KG        -14375.8
 S, KJ/(KG)(K)    10.9182

 M, (1/n)          19.162
 (dLV/dLP)t      -1.00406
 (dLV/dLT)p        1.0424
 Cp, KJ/(KG)(K)    1.9980
 GAMMAs            1.3020
 SON VEL,M/SEC      861.4

 DETONATION PARAMETERS

 P/P1               9.935
 T/T1               4.378
 M/M1              0.7450
 RHO/RHO1          1.6908
 DET MACH NUMBER   3.9951
 DET VEL,M/SEC     1456.4

 MOLE FRACTIONS

 *Ar             5.3540-3
 CH2             8.538-15
 CH3             1.5366-8
 CH2OH           1.024-12
 CH3O            3.006-14
 CH4             1.0233-3
 CH3OH           2.7583-9
 *CN             1.906-14
 *CO             1.7531-1
 *CO2            1.0694-2
 COOH            3.207-11
 C2H2,acetylene  3.8044-9
 C2H2,vinylidene 1.188-15
 CH2CO,ketene    6.8148-9
 O(CH)2O         1.353-14
 C2H3,vinyl      7.082-14
 CH3CN           8.1093-9
 CH3CO,acetyl    6.887-13
 C2H4            3.0761-8
 C2H4O,ethylen-o 3.289-16
 CH3CHO,ethanal  1.605-10
 CH3COOH         3.915-12
 C2H5            9.396-13
 C2H6            4.5582-9
 C2H5OH          1.372-13
 CH3OCH3         2.259-16
 OCCN            9.138-16
 C2N2            6.812-13
 C2O             1.300-16
 C3H3,2-propynl  5.910-15
 C3H4,allene     1.782-13
 C3H4,propyne    5.470-13
 C3H5,allyl      6.801-15
 C3H6,propylene  2.368-12
 C3H6,cyclo-     2.812-15
 C3H6O,acetone   8.770-15
 C3H6O,propanal  1.792-15
 C3H8            6.374-14
 C3O2            1.824-13
 C4H6,butadiene  4.031-16
 *H              2.5082-7
 HCN             1.3502-5
 HCO             1.6057-9
 HCCO            1.051-14
 HNC             9.5380-8
 HNCO            4.5435-7
 HNO             1.335-15
 *H2             3.3470-1
 HCHO,formaldehy 2.7624-7
 HCOOH           3.9980-8
 H2O             3.7103-2
 NCO             6.169-14
 *NH             2.676-14
 NH2             2.505-10
 NH3             1.5007-4
 NH2OH           2.490-15
 *NO             2.697-12
 *N2             4.3566-1
 N2H2            6.094-15
 N2H4            8.140-16
 N2O             4.172-16
 *O              2.745-16
 *OH             4.653-10

  * THERMODYNAMIC PROPERTIES FITTED TO 20000.K


                     DETONATION PROPERTIES OF AN IDEAL REACTING GAS
 CASE =                

             REACTANT                       MOLES         ENERGY      TEMP
                                                         KJ/KG-MOL      K
 FUEL        CH4                          1.0000000    -74533.907    300.000
 OXIDANT     O2                           2.0000000        54.358    300.000
 OXIDANT     N2                           7.4549000        53.881    300.000
 OXIDANT     Ar                           0.0916000        38.455    300.000

 O/F=    5.22277  %FUEL= 16.070020  R,EQ.RATIO= 3.300000  PHI,EQ.RATIO= 3.300000

 UNBURNED GAS

 P1, BAR           1.0000
 T1, K             300.00
 H1, KJ/KG        -745.06
 M1, (1/n)         25.644
 GAMMA1            1.3696
 SON VEL1,M/SEC     365.0

 BURNED GAS

 P, BAR            9.6796
 T, K             1265.91
 RHO, KG/CU M    1.7459 0
 H, KJ/KG         -74.355
 U, KJ/KG         -628.78
 G, KJ/KG        -13925.7
 S, KJ/(KG)(K)    10.9418

 M, (1/n)          18.984
 (dLV/dLP)t      -1.00936
 (dLV/dLT)p        1.1030
 Cp, KJ/(KG)(K)    2.3096
 GAMMAs            1.2842
 SON VEL,M/SEC      843.8

 DETONATION PARAMETERS

 P/P1               9.680
 T/T1               4.220
 M/M1              0.7403
 RHO/RHO1          1.6982
 DET MACH NUMBER   3.9260
 DET VEL,M/SEC     1433.0

 MOLE FRACTIONS

 *Ar             5.2786-3
 CH2             4.265-15
 CH3             1.7928-8
 CH2OH           7.675-13
 CH3O            1.994-14
 CH4             2.5955-3
 CH3OH           3.9688-9
 *CN             7.828-15
 *CO             1.7720-1
 *CO2            1.0361-2
 COOH            1.685-11
 C2H2,acetylene  6.0231-9
 C2H2,vinylidene 1.006-15
 CH2CO,ketene    1.0298-8
 O(CH)2O         1.287-14
 C2H3,vinyl      9.004-14
 CH3CN           2.2393-8
 CH3CO,acetyl    9.153-13
 C2H4            9.2257-8
 C2H4O,ethylen-o 5.153-16
 CH3CHO,ethanal  3.719-10
 CH3COOH         8.093-12
 C2H5            2.265-12
 C2H6            2.2258-8
 C2H5OH          4.073-13
 CH3OCH3         5.670-16
 OCCN            5.442-16
 C2N2            7.659-13
 C3H3,2-propynl  1.207-14
 C3H4,allene     6.002-13
 C3H4,propyne    1.885-12
 C3H4,cyclo-     1.336-16
 C3H5,allyl      2.517-14
 C3H6,propylene  1.472-11
 C3H6,cyclo-     1.555-14
 C3H6O,acetone   4.508-14
 C3H6O,propanal  8.123-15
 C3H8            6.164-13
 C3O2            2.081-13
 C4H6,butadiene  3.259-15
 C4H8,1-butene   3.819-16
 C4H8,cis2-buten 2.221-16
 C4H8,tr2-butene 2.511-16
 C4H8,isobutene  3.323-16
 *H              1.1924-7
 HCN             1.5817-5
 HCO             9.673-10
 HCCO            7.215-15
 HNC             9.0118-8
 HNCO            4.6172-7
 HNO             3.492-16
 *H2             3.4228-1
 HCHO,formaldehy 2.8345-7
 HCOOH           3.6949-8
 H2O             3.2590-2
 NCO             2.623-14
 *NH             7.897-15
 NH2             1.336-10
 NH3             1.8201-4
 NH2OH           1.102-15
 *NO             7.236-13
 *N2             4.2950-1
 N2H2            2.958-15
 N2H4            5.950-16
 N2O             1.123-16
 *OH             1.538-10

  * THERMODYNAMIC PROPERTIES FITTED TO 20000.K


                     DETONATION PROPERTIES OF AN IDEAL REACTING GAS
 CASE =                

             REACTANT                       MOLES         ENERGY      TEMP
                                                         KJ/KG-MOL      K
 FUEL        CH4                          1.0000000    -74533.907    300.000
 OXIDANT     O2                           2.0000000        54.358    300.000
 OXIDANT     N2                           7.4549000        53.881    300.000
 OXIDANT     Ar                           0.0916000        38.455    300.000

 O/F=    5.06916  %FUEL= 16.476753  R,EQ.RATIO= 3.400000  PHI,EQ.RATIO= 3.400000

 UNBURNED GAS

 P1, BAR           1.0000
 T1, K             300.00
 H1, KJ/KG        -763.96
 M1, (1/n)         25.570
 GAMMA1            1.3690
 SON VEL1,M/SEC     365.4

 BURNED GAS

 P, BAR            9.5075
 T, K             1230.92
 RHO, KG/CU M    1.7518 0
 H, KJ/KG         -106.20
 U, KJ/KG         -648.93
 G, KJ/KG        -13601.2
 S, KJ/(KG)(K)    10.9634

 M, (1/n)          18.858
 (dLV/dLP)t      -1.01694
 (dLV/dLT)p        1.1928
 Cp, KJ/(KG)(K)    2.7912
 GAMMAs            1.2623
 SON VEL,M/SEC      827.7

 DETONATION PARAMETERS

 P/P1               9.508
 T/T1               4.103
 M/M1              0.7375
 RHO/RHO1          1.7089
 DET MACH NUMBER   3.8706
 DET VEL,M/SEC     1414.5

 MOLE FRACTIONS

 *Ar             5.2180-3
 CH2             2.448-15
 CH3             2.0049-8
 CH2OH           6.085-13
 CH3O            1.437-14
 CH4             5.3479-3
 CH3OH           5.2549-9
 *CN             3.862-15
 *CO             1.7819-1
 *CO2            1.0127-2
 COOH            1.016-11
 C2H2,acetylene  8.5398-9
 C2H2,vinylidene 8.704-16
 CH2CO,ketene    1.4137-8
 O(CH)2O         1.233-14
 C2H3,vinyl      1.073-13
 CH3CN           4.9223-8
 CH3CO,acetyl    1.135-12
 C2H4            2.1596-7
 C2H4O,ethylen-o 7.271-16
 CH3CHO,ethanal  7.141-10
 CH3COOH         1.428-11
 C2H5            4.462-12
 C2H6            7.6371-8
 C2H5OH          9.491-13
 CH3OCH3         1.157-15
 OCCN            3.599-16
 C2N2            8.329-13
 C3H3,2-propynl  2.081-14
 C3H4,allene     1.533-12
 C3H4,propyne    4.902-12
 C3H4,cyclo-     2.711-16
 C3H5,allyl      6.922-14
 C3H6,propylene  6.082-11
 C3H6,cyclo-     5.866-14
 C3H6O,acetone   1.612-13
 C3H6O,propanal  2.631-14
 C3H7,n-propyl   1.907-16
 C3H7,i-propyl   2.439-16
 C3H8            3.603-12
 C3O2            2.295-13
 C4H6,butadiene  1.651-14
 C4H6,1butyne    2.458-16
 C4H6,2butyne    4.697-16
 C4H8,1-butene   2.690-15
 C4H8,cis2-buten 1.610-15
 C4H8,tr2-butene 1.823-15
 C4H8,isobutene  2.449-15
 C4H10,n-butane  1.692-16
 C6H6            9.753-16
 *H              6.6212-8
 HCN             1.7800-5
 HCO             6.468-10
 HCCO            5.325-15
 HNC             8.5618-8
 HNCO            4.6663-7
 HNO             1.218-16
 *H2             3.4692-1
 HCHO,formaldehy 2.8804-7
 HCOOH           3.4771-8
 H2O             2.9418-2
 NCO             1.336-14
 *NH             3.014-15
 NH2             8.117-11
 NH3             2.1101-4
 NH2OH           5.806-16
 *NO             2.576-13
 *N2             4.2455-1
 N2H2            1.672-15
 N2H4            4.634-16
 *OH             6.439-11

  * THERMODYNAMIC PROPERTIES FITTED TO 20000.K


                     DETONATION PROPERTIES OF AN IDEAL REACTING GAS
 CASE =                

             REACTANT                       MOLES         ENERGY      TEMP
                                                         KJ/KG-MOL      K
 FUEL        CH4                          1.0000000    -74533.907    300.000
 OXIDANT     O2                           2.0000000        54.358    300.000
 OXIDANT     N2                           7.4549000        53.881    300.000
 OXIDANT     Ar                           0.0916000        38.455    300.000

 O/F=    4.92432  %FUEL= 16.879564  R,EQ.RATIO= 3.500000  PHI,EQ.RATIO= 3.500000

 UNBURNED GAS

 P1, BAR           1.0000
 T1, K             300.00
 H1, KJ/KG        -782.69
 M1, (1/n)         25.497
 GAMMA1            1.3683
 SON VEL1,M/SEC     365.9

 BURNED GAS

 P, BAR            9.3763
 T, K             1205.58
 RHO, KG/CU M    1.7560 0
 H, KJ/KG         -134.45
 U, KJ/KG         -668.41
 G, KJ/KG        -13376.2
 S, KJ/(KG)(K)    10.9837

 M, (1/n)          18.772
 (dLV/dLP)t      -1.02470
 (dLV/dLT)p        1.2881
 Cp, KJ/(KG)(K)    3.3234
 GAMMAs            1.2444
 SON VEL,M/SEC      815.2

 DETONATION PARAMETERS

 P/P1               9.376
 T/T1               4.019
 M/M1              0.7363
 RHO/RHO1          1.7179
 DET MACH NUMBER   3.8274
 DET VEL,M/SEC     1400.3

 MOLE FRACTIONS

 *Ar             5.1694-3
 CH2             1.581-15
 CH3             2.1459-8
 CH2OH           5.056-13
 CH3O            1.111-14
 CH4             9.0914-3
 CH3OH           6.4336-9
 *CN             2.231-15
 *CO             1.7840-1
 *CO2            1.0006-2
 COOH            6.943-12
 C2H2,acetylene  1.0850-8
 C2H2,vinylidene 7.598-16
 CH2CO,ketene    1.7668-8
 O(CH)2O         1.183-14
 C2H3,vinyl      1.192-13
 CH3CN           8.7081-8
 CH3CO,acetyl    1.311-12
 C2H4            4.0007-7
 C2H4O,ethylen-o 9.243-16
 CH3CHO,ethanal  1.1470-9
 CH3COOH         2.169-11
 C2H5            7.234-12
 C2H6            1.8846-7
 C2H5OH          1.760-12
 CH3OCH3         1.940-15
 OCCN            2.591-16
 C2N2            8.681-13
 C3H3,2-propynl  3.028-14
 C3H4,allene     3.002-12
 C3H4,propyne    9.731-12
 C3H4,cyclo-     4.459-16
 C3H5,allyl      1.431-13
 C3H6,propylene  1.710-10
 C3H6,cyclo-     1.539-13
 C3H6O,acetone   4.091-13
 C3H6O,propanal  6.198-14
 C3H7,n-propyl   4.544-16
 C3H7,i-propyl   5.948-16
 C3H8            1.313-11
 C3H8O,1propanol 1.167-16
 C3H8O,2propanol 1.812-16
 C3O2            2.432-13
 C4H2,butadiyne  1.236-16
 C4H6,butadiene  5.362-14
 C4H6,1butyne    7.196-16
 C4H6,2butyne    1.443-15
 C4H8,1-butene   1.118-14
 C4H8,cis2-buten 6.835-15
 C4H8,tr2-butene 7.750-15
 C4H8,isobutene  1.053-14
 C4H10,n-butane  9.097-16
 C4H10,isobutane 4.050-16
 C5H6,1,3cyclo-  3.361-16
 C6H6            6.807-15
 *H              4.2277-8
 HCN             1.9216-5
 HCO             4.739-10
 HCCO            4.161-15
 HNC             8.1264-8
 HNCO            4.6795-7
 *H2             3.4917-1
 HCHO,formaldehy 2.8956-7
 HCOOH           3.3258-8
 H2O             2.7324-2
 NCO             7.979-15
 *NH             1.446-15
 NH2             5.534-11
 NH3             2.3461-4
 NH2OH           3.574-16
 *NO             1.184-13
 *N2             4.2058-1
 N2H2            1.079-15
 N2H4            3.800-16
 *OH             3.342-11

  * THERMODYNAMIC PROPERTIES FITTED TO 20000.K


                     DETONATION PROPERTIES OF AN IDEAL REACTING GAS
 CASE =                

             REACTANT                       MOLES         ENERGY      TEMP
                                                         KJ/KG-MOL      K
 FUEL        CH4                          1.0000000    -74533.907    300.000
 OXIDANT     O2                           2.0000000        54.358    300.000
 OXIDANT     N2                           7.4549000        53.881    300.000
 OXIDANT     Ar                           0.0916000        38.455    300.000

 O/F=    4.78754  %FUEL= 17.278507  R,EQ.RATIO= 3.600000  PHI,EQ.RATIO= 3.600000

 UNBURNED GAS

 P1, BAR           1.0000
 T1, K             300.00
 H1, KJ/KG        -801.23
 M1, (1/n)         25.425
 GAMMA1            1.3677
 SON VEL1,M/SEC     366.3

 BURNED GAS

 P, BAR            9.2646
 T, K             1186.54
 RHO, KG/CU M    1.7575 0
 H, KJ/KG         -160.70
 U, KJ/KG         -687.84
 G, KJ/KG        -13216.2
 S, KJ/(KG)(K)    11.0031

 M, (1/n)          18.715
 (dLV/dLP)t      -1.03135
 (dLV/dLT)p        1.3723
 Cp, KJ/(KG)(K)    3.8120
 GAMMAs            1.2317
 SON VEL,M/SEC      805.8

 DETONATION PARAMETERS

 P/P1               9.265
 T/T1               3.955
 M/M1              0.7361
 RHO/RHO1          1.7242
 DET MACH NUMBER   3.7929
 DET VEL,M/SEC     1389.4

 MOLE FRACTIONS

 *Ar             5.1288-3
 CH2             1.107-15
 CH3             2.2231-8
 CH2OH           4.335-13
 CH3O            9.006-15
 CH4             1.3484-2
 CH3OH           7.4498-9
 *CN             1.437-15
 *CO             1.7809-1
 *CO2            9.9719-3
 COOH            5.178-12
 C2H2,acetylene  1.2722-8
 C2H2,vinylidene 6.646-16
 CH2CO,ketene    2.0625-8
 O(CH)2O         1.133-14
 C2H3,vinyl      1.255-13
 CH3CN           1.3178-7
 CH3CO,acetyl    1.436-12
 C2H4            6.2673-7
 C2H4O,ethylen-o 1.089-15
 CH3CHO,ethanal  1.6216-9
 CH3COOH         2.963-11
 C2H5            1.019-11
 C2H6            3.6766-7
 C2H5OH          2.771-12
 CH3OCH3         2.824-15
 OCCN            1.974-16
 C2N2            8.744-13
 C3H3,2-propynl  3.891-14
 C3H4,allene     4.852-12
 C3H4,propyne    1.589-11
 C3H4,cyclo-     6.288-16
 C3H5,allyl      2.408-13
 C3H6,propylene  3.648-10
 C3H6,cyclo-     3.110-13
 C3H6O,acetone   8.130-13
 C3H6O,propanal  1.162-13
 C3H7,n-propyl   8.502-16
 C3H7,i-propyl   1.134-15
 C3H8            3.417-11
 C3H8O,1propanol 2.457-16
 C3H8O,2propanol 3.898-16
 C3O2            2.498-13
 C4H2,butadiyne  1.692-16
 C4H6,butadiene  1.265-13
 C4H6,1butyne    1.566-15
 C4H6,2butyne    3.260-15
 C4H8,1-butene   3.182-14
 C4H8,cis2-buten 1.978-14
 C4H8,tr2-butene 2.246-14
 C4H8,isobutene  3.078-14
 C4H10,n-butane  3.152-15
 C4H10,isobutane 1.423-15
 C5H6,1,3cyclo-  9.965-16
 C6H6            2.846-14
 *H              2.9773-8
 HCN             2.0111-5
 HCO             3.701-10
 HCCO            3.375-15
 HNC             7.6928-8
 HNCO            4.6639-7
 *H2             3.4985-1
 HCHO,formaldehy 2.8874-7
 HCOOH           3.2190-8
 H2O             2.5931-2
 NCO             5.319-15
 *NH             8.144-16
 NH2             4.088-11
 NH3             2.5326-4
 NH2OH           2.455-16
 *NO             6.515-14
 *N2             4.1727-1
 N2H2            7.632-16
 N2H4            3.226-16
 *OH             2.019-11

  * THERMODYNAMIC PROPERTIES FITTED TO 20000.K



