
 *******************************************************************************

         NASA-GLENN CHEMICAL EQUILIBRIUM PROGRAM CEA2, MAY 21, 2004
                   BY  BONNIE MCBRIDE AND SANFORD GORDON
      REFS: NASA RP-1311, PART I, 1994 AND NASA RP-1311, PART II, 1996

 *******************************************************************************



 problem    phi,eq.ratio=3.7,3.8,3.9,4,
       det   t,k=300,  p,bar=1,
 react
   fuel=CH4 moles=1 t,k=300
   oxid=O2 moles=2 t,k=300
   oxid=N2 moles=7.4549 t,k=300
   oxid=Ar moles=0.0916 t,k=300
 output
      trace=1e-16 siunits short
 end


                     DETONATION PROPERTIES OF AN IDEAL REACTING GAS
 CASE =                

             REACTANT                       MOLES         ENERGY      TEMP
                                                         KJ/KG-MOL      K
 FUEL        CH4                          1.0000000    -74533.907    300.000
 OXIDANT     O2                           2.0000000        54.358    300.000
 OXIDANT     N2                           7.4549000        53.881    300.000
 OXIDANT     Ar                           0.0916000        38.455    300.000

 O/F=    4.65814  %FUEL= 17.673640  R,EQ.RATIO= 3.700000  PHI,EQ.RATIO= 3.700000

 UNBURNED GAS

 P1, BAR           1.0000
 T1, K             300.00
 H1, KJ/KG        -819.59
 M1, (1/n)         25.354
 GAMMA1            1.3672
 SON VEL1,M/SEC     366.7

 BURNED GAS

 P, BAR            9.1645
 T, K             1171.51
 RHO, KG/CU M    1.7570 0
 H, KJ/KG         -185.64
 U, KJ/KG         -707.23
 G, KJ/KG        -13097.5
 S, KJ/(KG)(K)    11.0216

 M, (1/n)          18.675
 (dLV/dLP)t      -1.03664
 (dLV/dLT)p        1.4414
 Cp, KJ/(KG)(K)    4.2281
 GAMMAs            1.2227
 SON VEL,M/SEC      798.6

 DETONATION PARAMETERS

 P/P1               9.165
 T/T1               3.905
 M/M1              0.7366
 RHO/RHO1          1.7286
 DET MACH NUMBER   3.7641
 DET VEL,M/SEC     1380.4

 MOLE FRACTIONS

 *Ar             5.0934-3
 CH2             8.178-16
 CH3             2.2541-8
 CH2OH           3.798-13
 CH3O            7.540-15
 CH4             1.8266-2
 CH3OH           8.3148-9
 *CN             9.950-16
 *CO             1.7745-1
 *CO2            9.9975-3
 COOH            4.095-12
 C2H2,acetylene  1.4138-8
 C2H2,vinylidene 5.822-16
 CH2CO,ketene    2.3011-8
 O(CH)2O         1.085-14
 C2H3,vinyl      1.277-13
 CH3CN           1.7972-7
 CH3CO,acetyl    1.519-12
 C2H4            8.7818-7
 C2H4O,ethylen-o 1.220-15
 CH3CHO,ethanal  2.1062-9
 CH3COOH         3.771-11
 C2H5            1.308-11
 C2H6            6.1349-7
 C2H5OH          3.914-12
 CH3OCH3         3.741-15
 OCCN            1.562-16
 C2N2            8.608-13
 C3H3,2-propynl  4.600-14
 C3H4,allene     6.899-12
 C3H4,propyne    2.280-11
 C3H4,cyclo-     8.005-16
 C3H5,allyl      3.533-13
 C3H6,propylene  6.477-10
 C3H6,cyclo-     5.286-13
 C3H6O,acetone   1.373-12
 C3H6O,propanal  1.872-13
 C3H7,n-propyl   1.355-15
 C3H7,i-propyl   1.833-15
 C3H8            7.104-11
 C3H8O,1propanol 4.332-16
 C3H8O,2propanol 6.995-16
 C3O2            2.513-13
 C4H2,butadiyne  2.088-16
 C4H6,butadiene  2.412-13
 C4H6,1butyne    2.795-15
 C4H6,2butyne    6.000-15
 C4H6,cyclo-     1.048-16
 C4H8,1-butene   7.041-14
 C4H8,cis2-buten 4.437-14
 C4H8,tr2-butene 5.042-14
 C4H8,isobutene  6.959-14
 C4H10,n-butane  8.155-15
 C4H10,isobutane 3.722-15
 C5H6,1,3cyclo-  2.263-15
 C6H6            8.452-14
 *H              2.2382-8
 HCN             2.0618-5
 HCO             3.015-10
 HCCO            2.806-15
 HNC             7.2693-8
 HNCO            4.6294-7
 *H2             3.4955-1
 HCHO,formaldehy 2.8645-7
 HCOOH           3.1408-8
 H2O             2.4974-2
 NCO             3.815-15
 *NH             5.100-16
 NH2             3.187-11
 NH3             2.6812-4
 NH2OH           1.814-16
 *NO             4.042-14
 *N2             4.1438-1
 N2H2            5.739-16
 N2H4            2.803-16
 *OH             1.350-11

  * THERMODYNAMIC PROPERTIES FITTED TO 20000.K


                     DETONATION PROPERTIES OF AN IDEAL REACTING GAS
 CASE =                

             REACTANT                       MOLES         ENERGY      TEMP
                                                         KJ/KG-MOL      K
 FUEL        CH4                          1.0000000    -74533.907    300.000
 OXIDANT     O2                           2.0000000        54.358    300.000
 OXIDANT     N2                           7.4549000        53.881    300.000
 OXIDANT     Ar                           0.0916000        38.455    300.000

 O/F=    4.53556  %FUEL= 18.065015  R,EQ.RATIO= 3.800000  PHI,EQ.RATIO= 3.800000

 UNBURNED GAS

 P1, BAR           1.0000
 T1, K             300.00
 H1, KJ/KG        -837.78
 M1, (1/n)         25.284
 GAMMA1            1.3666
 SON VEL1,M/SEC     367.2

 BURNED GAS

 P, BAR            9.0734
 T, K             1159.15
 RHO, KG/CU M    1.7554 0
 H, KJ/KG         -209.59
 U, KJ/KG         -726.48
 G, KJ/KG        -13005.9
 S, KJ/(KG)(K)    11.0394

 M, (1/n)          18.646
 (dLV/dLP)t      -1.04077
 (dLV/dLT)p        1.4970
 Cp, KJ/(KG)(K)    4.5755
 GAMMAs            1.2160
 SON VEL,M/SEC      792.8

 DETONATION PARAMETERS

 P/P1               9.073
 T/T1               3.864
 M/M1              0.7374
 RHO/RHO1          1.7317
 DET MACH NUMBER   3.7392
 DET VEL,M/SEC     1372.9

 MOLE FRACTIONS

 *Ar             5.0612-3
 CH2             6.274-16
 CH3             2.2538-8
 CH2OH           3.378-13
 CH3O            6.456-15
 CH4             2.3277-2
 CH3OH           9.0550-9
 *CN             7.241-16
 *CO             1.7660-1
 *CO2            1.0062-2
 COOH            3.371-12
 C2H2,acetylene  1.5163-8
 C2H2,vinylidene 5.110-16
 CH2CO,ketene    2.4908-8
 O(CH)2O         1.039-14
 C2H3,vinyl      1.269-13
 CH3CN           2.2854-7
 CH3CO,acetyl    1.570-12
 C2H4            1.1417-6
 C2H4O,ethylen-o 1.321-15
 CH3CHO,ethanal  2.5841-9
 CH3COOH         4.576-11
 C2H5            1.577-11
 C2H6            9.2141-7
 C2H5OH          5.139-12
 CH3OCH3         4.656-15
 OCCN            1.268-16
 C2N2            8.348-13
 C3H3,2-propynl  5.146-14
 C3H4,allene     9.005-12
 C3H4,propyne    2.997-11
 C3H4,cyclo-     9.519-16
 C3H5,allyl      4.727-13
 C3H6,propylene  1.0164-9
 C3H6,cyclo-     7.996-13
 C3H6O,acetone   2.077-12
 C3H6O,propanal  2.722-13
 C3H7,n-propyl   1.938-15
 C3H7,i-propyl   2.655-15
 C3H8            1.270-10
 C3H8O,1propanol 6.780-16
 C3H8O,2propanol 1.111-15
 C3O2            2.493-13
 C4H2,butadiyne  2.405-16
 C4H6,butadiene  3.985-13
 C4H6,1butyne    4.368-15
 C4H6,2butyne    9.621-15
 C4H6,cyclo-     1.660-16
 C4H8,1-butene   1.315-13
 C4H8,cis2-buten 8.383-14
 C4H8,tr2-butene 9.532-14
 C4H8,isobutene  1.324-13
 C4H10,n-butane  1.733-14
 C4H10,isobutane 7.983-15
 C5H6,1,3cyclo-  4.297-15
 C5H8,cyclo-     1.639-16
 C6H6            1.994-13
 C7H8            2.658-16
 *H              1.7595-8
 HCN             2.0852-5
 HCO             2.530-10
 HCCO            2.375-15
 HNC             6.8642-8
 HNCO            4.5835-7
 *H2             3.4864-1
 HCHO,formaldehy 2.8326-7
 HCOOH           3.0815-8
 H2O             2.4292-2
 NCO             2.878-15
 *NH             3.435-16
 NH2             2.577-11
 NH3             2.8020-4
 NH2OH           1.409-16
 *NO             2.721-14
 *N2             4.1176-1
 N2H2            4.500-16
 N2H4            2.476-16
 *OH             9.674-12

  * THERMODYNAMIC PROPERTIES FITTED TO 20000.K


                     DETONATION PROPERTIES OF AN IDEAL REACTING GAS
 CASE =                

             REACTANT                       MOLES         ENERGY      TEMP
                                                         KJ/KG-MOL      K
 FUEL        CH4                          1.0000000    -74533.907    300.000
 OXIDANT     O2                           2.0000000        54.358    300.000
 OXIDANT     N2                           7.4549000        53.881    300.000
 OXIDANT     Ar                           0.0916000        38.455    300.000

 O/F=    4.41926  %FUEL= 18.452687  R,EQ.RATIO= 3.900000  PHI,EQ.RATIO= 3.900000

 UNBURNED GAS

 P1, BAR           1.0000
 T1, K             300.00
 H1, KJ/KG        -855.80
 M1, (1/n)         25.215
 GAMMA1            1.3660
 SON VEL1,M/SEC     367.6

 BURNED GAS

 P, BAR            9.0742
 T, K             1152.09
 RHO, KG/CU M    1.7628 0
 H, KJ/KG         -227.44
 U, KJ/KG         -742.19
 G, KJ/KG        -12966.2
 S, KJ/(KG)(K)    11.0571

 M, (1/n)          18.609
 MW, MOL WT        18.529
 (dLV/dLP)t      -1.04379
 (dLV/dLT)p        1.5536
 Cp, KJ/(KG)(K)    5.1877
 GAMMAs            1.1963
 SON VEL,M/SEC      784.7

 DETONATION PARAMETERS

 P/P1               9.074
 T/T1               3.840
 M/M1              0.7380
 RHO/RHO1          1.7438
 DET MACH NUMBER   3.7226
 DET VEL,M/SEC     1368.4

 MOLE FRACTIONS

 *Ar             5.0057-3
 CH2             5.095-16
 CH3             2.1492-8
 CH2OH           3.157-13
 CH3O            5.901-15
 CH4             2.5726-2
 CH3OH           9.5805-9
 *CN             5.636-16
 *CO             1.7267-1
 *CO2            1.0385-2
 COOH            3.116-12
 C2H2,acetylene  1.4131-8
 C2H2,vinylidene 4.239-16
 CH2CO,ketene    2.4476-8
 O(CH)2O         9.970-15
 C2H3,vinyl      1.139-13
 CH3CN           2.3704-7
 CH3CO,acetyl    1.512-12
 C2H4            1.2057-6
 C2H4O,ethylen-o 1.316-15
 CH3CHO,ethanal  2.7674-9
 CH3COOH         5.107-11
 C2H5            1.604-11
 C2H6            1.0723-6
 C2H5OH          5.802-12
 CH3OCH3         5.095-15
 OCCN            1.042-16
 C2N2            7.263-13
 C3H3,2-propynl  4.673-14
 C3H4,allene     9.002-12
 C3H4,propyne    3.008-11
 C3H4,cyclo-     9.015-16
 C3H5,allyl      4.826-13
 C3H6,propylene  1.1460-9
 C3H6,cyclo-     8.825-13
 C3H6O,acetone   2.405-12
 C3H6O,propanal  3.080-13
 C3H7,n-propyl   2.084-15
 C3H7,i-propyl   2.876-15
 C3H8            1.564-10
 C3H8O,1propanol 8.113-16
 C3H8O,2propanol 1.341-15
 C3O2            2.277-13
 C4H2,butadiyne  2.084-16
 C4H6,butadiene  4.373-13
 C4H6,1butyne    4.641-15
 C4H6,2butyne    1.038-14
 C4H6,cyclo-     1.776-16
 C4H8,1-butene   1.570-13
 C4H8,cis2-buten 1.008-13
 C4H8,tr2-butene 1.146-13
 C4H8,isobutene  1.597-13
 C4H10,n-butane  2.259-14
 C4H10,isobutane 1.047-14
 C5H6,1,3cyclo-  4.827-15
 C5H8,cyclo-     1.984-16
 C6H6            2.401-13
 C7H8            3.418-16
 *H              1.5247-8
 HCN             1.9782-5
 HCO             2.255-10
 HCCO            2.009-15
 HNC             6.2574-8
 HNCO            4.5044-7
 *H2             3.4920-1
 HCHO,formaldehy 2.7963-7
 HCOOH           3.1760-8
 H2O             2.5148-2
 NCO             2.399-15
 *NH             2.725-16
 NH2             2.288-11
 NH3             2.9068-4
 NH2OH           1.291-16
 *NO             2.248-14
 *N2             4.0724-1
 N2H2            3.930-16
 N2H4            2.348-16
 *OH             8.330-12
 C(gr)           4.3170-3

  * THERMODYNAMIC PROPERTIES FITTED TO 20000.K


                     DETONATION PROPERTIES OF AN IDEAL REACTING GAS
 CASE =                

             REACTANT                       MOLES         ENERGY      TEMP
                                                         KJ/KG-MOL      K
 FUEL        CH4                          1.0000000    -74533.907    300.000
 OXIDANT     O2                           2.0000000        54.358    300.000
 OXIDANT     N2                           7.4549000        53.881    300.000
 OXIDANT     Ar                           0.0916000        38.455    300.000

 O/F=    4.30878  %FUEL= 18.836708  R,EQ.RATIO= 4.000000  PHI,EQ.RATIO= 4.000000

 UNBURNED GAS

 P1, BAR           1.0000
 T1, K             300.00
 H1, KJ/KG        -873.65
 M1, (1/n)         25.148
 GAMMA1            1.3654
 SON VEL1,M/SEC     368.0

 BURNED GAS

 P, BAR            9.0195
 T, K             1145.24
 RHO, KG/CU M    1.7595 0
 H, KJ/KG         -248.04
 U, KJ/KG         -760.66
 G, KJ/KG        -12931.1
 S, KJ/(KG)(K)    11.0746

 M, (1/n)          18.575
 MW, MOL WT        18.387
 (dLV/dLP)t      -1.04568
 (dLV/dLT)p        1.5796
 Cp, KJ/(KG)(K)    5.3792
 GAMMAs            1.1932
 SON VEL,M/SEC      782.1

 DETONATION PARAMETERS

 P/P1               9.020
 T/T1               3.817
 M/M1              0.7386
 RHO/RHO1          1.7452
 DET MACH NUMBER   3.7089
 DET VEL,M/SEC     1364.9

 MOLE FRACTIONS

 *Ar             4.9440-3
 CH2             4.016-16
 CH3             1.9795-8
 CH2OH           2.914-13
 CH3O            5.330-15
 CH4             2.7338-2
 CH3OH           9.9712-9
 *CN             4.263-16
 *CO             1.6755-1
 *CO2            1.0865-2
 COOH            2.921-12
 C2H2,acetylene  1.2315-8
 C2H2,vinylidene 3.295-16
 CH2CO,ketene    2.2971-8
 O(CH)2O         9.346-15
 C2H3,vinyl      9.548-14
 CH3CN           2.2833-7
 CH3CO,acetyl    1.388-12
 C2H4            1.1835-6
 C2H4O,ethylen-o 1.248-15
 CH3CHO,ethanal  2.8157-9
 CH3COOH         5.532-11
 C2H5            1.516-11
 C2H6            1.1537-6
 C2H5OH          6.194-12
 CH3OCH3         5.275-15
 C2N2            5.901-13
 C3H3,2-propynl  3.828-14
 C3H4,allene     8.089-12
 C3H4,propyne    2.714-11
 C3H4,cyclo-     7.682-16
 C3H5,allyl      4.419-13
 C3H6,propylene  1.1546-9
 C3H6,cyclo-     8.707-13
 C3H6O,acetone   2.542-12
 C3H6O,propanal  3.183-13
 C3H7,n-propyl   2.001-15
 C3H7,i-propyl   2.781-15
 C3H8            1.713-10
 C3H8O,1propanol 8.827-16
 C3H8O,2propanol 1.472-15
 C3O2            1.971-13
 C4H2,butadiyne  1.578-16
 C4H6,butadiene  4.145-13
 C4H6,1butyne    4.261-15
 C4H6,2butyne    9.665-15
 C4H6,cyclo-     1.643-16
 C4H8,1-butene   1.611-13
 C4H8,cis2-buten 1.040-13
 C4H8,tr2-butene 1.184-13
 C4H8,isobutene  1.656-13
 C4H10,n-butane  2.518-14
 C4H10,isobutane 1.173-14
 C5H6,1,3cyclo-  4.523-15
 C5H8,cyclo-     1.994-16
 C6H6            2.326-13
 C7H8            3.400-16
 *H              1.3282-8
 HCN             1.8138-5
 HCO             1.994-10
 HCCO            1.631-15
 HNC             5.5174-8
 HNCO            4.3713-7
 *H2             3.5003-1
 HCHO,formaldehy 2.7288-7
 HCOOH           3.3059-8
 H2O             2.6619-2
 NCO             1.984-15
 *NH             2.170-16
 NH2             2.032-11
 NH3             3.0013-4
 NH2OH           1.205-16
 *NO             1.908-14
 *N2             4.0221-1
 N2H2            3.423-16
 N2H4            2.210-16
 *OH             7.372-12
 C(gr)           1.0123-2

  * THERMODYNAMIC PROPERTIES FITTED TO 20000.K



