
 *******************************************************************************

         NASA-GLENN CHEMICAL EQUILIBRIUM PROGRAM CEA2, MAY 21, 2004
                   BY  BONNIE MCBRIDE AND SANFORD GORDON
      REFS: NASA RP-1311, PART I, 1994 AND NASA RP-1311, PART II, 1996

 *******************************************************************************



 problem    phi,eq.ratio=0.5,0.6,0.7,0.8,0.9,1,1.1,1.2,1.3,1.4,1.5,1.6,1.7,1.8,1.
 9,2,
       det   t,k=300,  p,bar=1,
 react
   fuel=CH4 moles=1 t,k=300
   oxid=O2 moles=2 t,k=300
   oxid=N2 moles=7.5238 t,k=300
 output
      trace=1e-16 siunits short
 end


                     DETONATION PROPERTIES OF AN IDEAL REACTING GAS
 CASE =                

             REACTANT                       MOLES         ENERGY      TEMP
                                                         KJ/KG-MOL      K
 FUEL        CH4                          1.0000000    -74533.907    300.000
 OXIDANT     O2                           2.0000000        54.358    300.000
 OXIDANT     N2                           7.5238000        53.881    300.000

 O/F=   34.25470  %FUEL=  2.836501  R,EQ.RATIO= 0.500000  PHI,EQ.RATIO= 0.500000

 UNBURNED GAS

 P1, BAR           1.0000
 T1, K             300.00
 H1, KJ/KG        -129.97
 M1, (1/n)         28.211
 GAMMA1            1.3923
 SON VEL1,M/SEC     350.9

 BURNED GAS

 P, BAR            11.578
 T, K             2008.46
 RHO, KG/CU M    1.9553 0
 H, KJ/KG          608.15
 U, KJ/KG          16.017
 G, KJ/KG        -16829.4
 S, KJ/(KG)(K)     8.6821

 M, (1/n)          28.202
 (dLV/dLP)t      -1.00011
 (dLV/dLT)p        1.0038
 Cp, KJ/(KG)(K)    1.4675
 GAMMAs            1.2537
 SON VEL,M/SEC      861.6

 DETONATION PARAMETERS

 P/P1              11.578
 T/T1               6.695
 M/M1              0.9997
 RHO/RHO1          1.7288
 DET MACH NUMBER   4.2453
 DET VEL,M/SEC     1489.5

 MOLE FRACTIONS

 *CO             6.6592-5
 *CO2            4.9798-2
 COOH            4.203-10
 *H              2.7188-6
 HCN             2.018-15
 HCO             7.244-13
 HNC             1.034-16
 HNCO            1.995-12
 HNO             3.3000-8
 HNO2            5.7360-7
 HNO3            3.772-10
 HO2             3.1282-6
 *H2             2.8753-5
 HCHO,formaldehy 9.163-15
 HCOOH           3.030-11
 H2O             9.9160-2
 H2O2            2.0220-7
 *N              2.587-10
 NCO             8.743-14
 *NH             2.662-11
 NH2             1.033-11
 NH3             3.082-11
 NH2OH           4.880-14
 *NO             5.1862-3
 NO2             2.0558-5
 NO3             6.921-11
 *N2             7.4773-1
 N2H2            7.770-16
 N2O             9.6918-7
 N2O3            2.448-12
 N2O4            3.960-16
 N3              4.744-15
 N3H             7.396-16
 *O              6.5253-5
 *OH             1.0736-3
 *O2             9.6859-2
 O3              6.3004-9

  * THERMODYNAMIC PROPERTIES FITTED TO 20000.K


                     DETONATION PROPERTIES OF AN IDEAL REACTING GAS
 CASE =                

             REACTANT                       MOLES         ENERGY      TEMP
                                                         KJ/KG-MOL      K
 FUEL        CH4                          1.0000000    -74533.907    300.000
 OXIDANT     O2                           2.0000000        54.358    300.000
 OXIDANT     N2                           7.5238000        53.881    300.000

 O/F=   28.54558  %FUEL=  3.384601  R,EQ.RATIO= 0.600000  PHI,EQ.RATIO= 0.600000

 UNBURNED GAS

 P1, BAR           1.0000
 T1, K             300.00
 H1, KJ/KG        -155.44
 M1, (1/n)         28.091
 GAMMA1            1.3912
 SON VEL1,M/SEC     351.5

 BURNED GAS

 P, BAR            13.035
 T, K             2234.97
 RHO, KG/CU M    1.9682 0
 H, KJ/KG          684.59
 U, KJ/KG          22.324
 G, KJ/KG        -19133.6
 S, KJ/(KG)(K)     8.8673

 M, (1/n)          28.059
 (dLV/dLP)t      -1.00041
 (dLV/dLT)p        1.0125
 Cp, KJ/(KG)(K)    1.5935
 GAMMAs            1.2349
 SON VEL,M/SEC      904.4

 DETONATION PARAMETERS

 P/P1              13.035
 T/T1               7.450
 M/M1              0.9989
 RHO/RHO1          1.7476
 DET MACH NUMBER   4.4968
 DET VEL,M/SEC     1580.5

 MOLE FRACTIONS

 *CN             9.863-16
 *CO             4.5430-4
 *CO2            5.8744-2
 COOH            3.7421-9
 *H              2.4572-5
 HCN             1.807-13
 HCO             3.173-11
 HNC             1.350-14
 HNCO            3.597-11
 HNO             1.3719-7
 HNO2            7.5692-7
 HNO3            3.431-10
 HO2             6.4667-6
 *H2             1.6751-4
 HCHO,formaldehy 4.052-13
 HCOOH           2.634-10
 H2O             1.1681-1
 H2O2            4.3347-7
 *N              4.4699-9
 NCO             2.897-12
 *NH             5.580-10
 NH2             1.942-10
 NH3             3.469-10
 NH2OH           5.337-13
 *NO             7.8710-3
 NO2             2.0738-5
 NO3             8.560-11
 *N2             7.3838-1
 N2H2            1.855-14
 N2O             1.5342-6
 N2O3            3.607-12
 N2O4            3.633-16
 N3              7.282-14
 N3H             1.210-14
 *O              2.5420-4
 *OH             2.8069-3
 *O2             7.4457-2
 O3              1.1169-8

  * THERMODYNAMIC PROPERTIES FITTED TO 20000.K


                     DETONATION PROPERTIES OF AN IDEAL REACTING GAS
 CASE =                

             REACTANT                       MOLES         ENERGY      TEMP
                                                         KJ/KG-MOL      K
 FUEL        CH4                          1.0000000    -74533.907    300.000
 OXIDANT     O2                           2.0000000        54.358    300.000
 OXIDANT     N2                           7.5238000        53.881    300.000

 O/F=   24.46764  %FUEL=  3.926551  R,EQ.RATIO= 0.700000  PHI,EQ.RATIO= 0.700000

 UNBURNED GAS

 P1, BAR           1.0000
 T1, K             300.00
 H1, KJ/KG        -180.63
 M1, (1/n)         27.973
 GAMMA1            1.3901
 SON VEL1,M/SEC     352.1

 BURNED GAS

 P, BAR            14.349
 T, K             2430.15
 RHO, KG/CU M    1.9806 0
 H, KJ/KG          751.54
 U, KJ/KG          27.047
 G, KJ/KG        -21205.8
 S, KJ/(KG)(K)     9.0354

 M, (1/n)          27.889
 (dLV/dLP)t      -1.00118
 (dLV/dLT)p        1.0327
 Cp, KJ/(KG)(K)    1.7889
 GAMMAs            1.2144
 SON VEL,M/SEC      938.0

 DETONATION PARAMETERS

 P/P1              14.349
 T/T1               8.101
 M/M1              0.9970
 RHO/RHO1          1.7661
 DET MACH NUMBER   4.7052
 DET VEL,M/SEC     1656.5

 MOLE FRACTIONS

 *CN             5.300-14
 *CO             1.9083-3
 *CO2            6.6354-2
 COOH            1.8702-8
 *H              1.2252-4
 HCN             5.383-12
 HCO             5.262-10
 HNC             5.257-13
 HNCO            3.194-10
 HNO             3.7079-7
 HNO2            8.4053-7
 HNO3            2.737-10
 HO2             9.8165-6
 *H2             6.3866-4
 HCHO,formaldehy 7.120-12
 HCOOH           1.3652-9
 H2O             1.3313-1
 H2O2            7.0861-7
 *N              3.3825-8
 NCO             3.785-11
 *NH             5.0712-9
 NH2             1.7148-9
 NH3             2.2318-9
 NH2OH           3.167-12
 *NO             9.8132-3
 NO2             1.8097-5
 NO3             8.093-11
 *N2             7.2878-1
 N2H2            1.973-13
 NH2NO2          2.561-16
 N2O             1.9905-6
 N2O3            3.884-12
 N2O4            2.621-16
 N3              5.118-13
 N3H             9.344-14
 *O              6.1901-4
 *OH             5.3810-3
 *O2             5.3225-2
 O3              1.3718-8

  * THERMODYNAMIC PROPERTIES FITTED TO 20000.K


                     DETONATION PROPERTIES OF AN IDEAL REACTING GAS
 CASE =                

             REACTANT                       MOLES         ENERGY      TEMP
                                                         KJ/KG-MOL      K
 FUEL        CH4                          1.0000000    -74533.907    300.000
 OXIDANT     O2                           2.0000000        54.358    300.000
 OXIDANT     N2                           7.5238000        53.881    300.000

 O/F=   21.40919  %FUEL=  4.462456  R,EQ.RATIO= 0.800000  PHI,EQ.RATIO= 0.800000

 UNBURNED GAS

 P1, BAR           1.0000
 T1, K             300.00
 H1, KJ/KG        -205.54
 M1, (1/n)         27.858
 GAMMA1            1.3890
 SON VEL1,M/SEC     352.7

 BURNED GAS

 P, BAR            15.493
 T, K             2588.56
 RHO, KG/CU M    1.9922 0
 H, KJ/KG          807.04
 U, KJ/KG          29.352
 G, KJ/KG        -22980.6
 S, KJ/(KG)(K)     9.1895

 M, (1/n)          27.675
 (dLV/dLP)t      -1.00271
 (dLV/dLT)p        1.0695
 Cp, KJ/(KG)(K)    2.0853
 GAMMAs            1.1935
 SON VEL,M/SEC      963.4

 DETONATION PARAMETERS

 P/P1              15.493
 T/T1               8.629
 M/M1              0.9934
 RHO/RHO1          1.7838
 DET MACH NUMBER   4.8729
 DET VEL,M/SEC     1718.5

 MOLE FRACTIONS

 *C              7.355-16
 *CH             1.216-16
 CH2             2.330-16
 CH3             5.544-16
 CH2OH           1.305-15
 CH3O            2.285-16
 CH4             1.467-16
 *CN             1.031-12
 *CO             5.6394-3
 *CO2            7.1343-2
 COOH            6.0445-8
 *H              3.9729-4
 HCN             7.348-11
 HCO             4.3187-9
 HNC             8.652-12
 HNCO            1.6999-9
 HNO             7.1733-7
 HNO2            7.9170-7
 HNO3            1.866-10
 HO2             1.1465-5
 *H2             1.8163-3
 HCHO,formaldehy 6.464-11
 HCOOH           4.8123-9
 H2O             1.4788-1
 H2O2            9.2431-7
 *N              1.3890-7
 NCO             2.491-10
 *NH             2.5075-8
 NH2             8.8141-9
 NH3             9.7521-9
 NH2OH           1.196-11
 *NO             1.0355-2
 NO2             1.3564-5
 NO3             5.854-11
 *N2             7.1881-1
 N2H2            1.167-12
 NH2NO2          5.281-16
 N2O             2.1729-6
 N2O3            3.088-12
 N2O4            1.438-16
 N3              2.009-12
 N3H             4.155-13
 *O              1.0428-3
 *OH             8.1146-3
 *O2             3.4566-2
 O3              1.1987-8

  * THERMODYNAMIC PROPERTIES FITTED TO 20000.K


                     DETONATION PROPERTIES OF AN IDEAL REACTING GAS
 CASE =                

             REACTANT                       MOLES         ENERGY      TEMP
                                                         KJ/KG-MOL      K
 FUEL        CH4                          1.0000000    -74533.907    300.000
 OXIDANT     O2                           2.0000000        54.358    300.000
 OXIDANT     N2                           7.5238000        53.881    300.000

 O/F=   19.03039  %FUEL=  4.992414  R,EQ.RATIO= 0.900000  PHI,EQ.RATIO= 0.900000

 UNBURNED GAS

 P1, BAR           1.0000
 T1, K             300.00
 H1, KJ/KG        -230.17
 M1, (1/n)         27.744
 GAMMA1            1.3879
 SON VEL1,M/SEC     353.2

 BURNED GAS

 P, BAR            16.416
 T, K             2705.03
 RHO, KG/CU M    2.0002 0
 H, KJ/KG          848.19
 U, KJ/KG          27.449
 G, KJ/KG        -24395.5
 S, KJ/(KG)(K)     9.3321

 M, (1/n)          27.403
 (dLV/dLP)t      -1.00484
 (dLV/dLT)p        1.1188
 Cp, KJ/(KG)(K)    2.4530
 GAMMAs            1.1764
 SON VEL,M/SEC      982.6

 DETONATION PARAMETERS

 P/P1              16.416
 T/T1               9.017
 M/M1              0.9877
 RHO/RHO1          1.7982
 DET MACH NUMBER   5.0022
 DET VEL,M/SEC     1767.0

 MOLE FRACTIONS

 *C              1.139-14
 *CH             2.301-15
 CH2             4.508-15
 CH3             1.027-14
 CH2OH           1.352-14
 CH3O            2.596-15
 CH4             2.777-15
 CH3OH           7.261-16
 *CN             9.240-12
 *CO             1.2740-2
 *CO2            7.2539-2
 COOH            1.3733-7
 CH2CO,ketene    1.087-16
 HO(CO)2OH       2.014-16
 OCCN            3.137-16
 C2O             1.231-15
 *H              9.2733-4
 HCN             5.636-10
 HCO             2.0698-8
 HNC             7.506-11
 HNCO            6.1329-9
 HNO             1.0463-6
 HNO2            6.2805-7
 HNO3            1.048-10
 HO2             1.0467-5
 *H2             4.1957-3
 HCHO,formaldehy 3.581-10
 HCOOH           1.2524-8
 H2O             1.6089-1
 H2O2            9.8064-7
 *N              3.5106-7
 NCO             9.573-10
 *NH             7.7351-8
 NH2             3.0144-8
 NH3             3.2373-8
 NH2OH           3.167-11
 *NO             9.3409-3
 NO2             8.5626-6
 NO3             3.166-11
 *N2             7.0824-1
 NCN             7.137-16
 N2H2            4.396-12
 NH2NO2          7.621-16
 N2O             2.0099-6
 N2O3            1.780-12
 N3              4.939-12
 N3H             1.199-12
 *O              1.2810-3
 *OH             9.9996-3
 *O2             1.9821-2
 O3              7.3770-9

  * THERMODYNAMIC PROPERTIES FITTED TO 20000.K


                     DETONATION PROPERTIES OF AN IDEAL REACTING GAS
 CASE =                

             REACTANT                       MOLES         ENERGY      TEMP
                                                         KJ/KG-MOL      K
 FUEL        CH4                          1.0000000    -74533.907    300.000
 OXIDANT     O2                           2.0000000        54.358    300.000
 OXIDANT     N2                           7.5238000        53.881    300.000

 O/F=   17.12735  %FUEL=  5.516526  R,EQ.RATIO= 1.000000  PHI,EQ.RATIO= 1.000000

 UNBURNED GAS

 P1, BAR           1.0000
 T1, K             300.00
 H1, KJ/KG        -254.53
 M1, (1/n)         27.633
 GAMMA1            1.3869
 SON VEL1,M/SEC     353.8

 BURNED GAS

 P, BAR            17.060
 T, K             2776.41
 RHO, KG/CU M    2.0006 0
 H, KJ/KG          871.70
 U, KJ/KG          18.946
 G, KJ/KG        -25406.2
 S, KJ/(KG)(K)     9.4647

 M, (1/n)          27.071
 (dLV/dLP)t      -1.00645
 (dLV/dLT)p        1.1547
 Cp, KJ/(KG)(K)    2.7229
 GAMMAs            1.1682
 SON VEL,M/SEC      998.1

 DETONATION PARAMETERS

 P/P1              17.060
 T/T1               9.255
 M/M1              0.9796
 RHO/RHO1          1.8059
 DET MACH NUMBER   5.0941
 DET VEL,M/SEC     1802.4

 MOLE FRACTIONS

 *C              7.717-14
 *CH             1.952-14
 CH2             4.327-14
 CH3             1.075-13
 CH2OH           8.317-14
 CH3O            1.685-14
 CH4             3.294-14
 CH3OH           5.226-15
 *CN             4.573-11
 *CO             2.3517-2
 *CO2            6.9570-2
 COOH            2.3301-7
 CH2CO,ketene    1.398-15
 HO(CO)2OH       4.365-16
 OCCN            2.645-15
 C2O             1.126-14
 *H              1.6733-3
 HCN             2.8512-9
 HCO             6.5627-8
 HCCO            6.666-16
 HNC             4.074-10
 HNCO            1.6521-8
 HNO             1.1821-6
 HNO2            4.1026-7
 HNO3            4.608-11
 HO2             7.4164-6
 *H2             8.4073-3
 HCHO,formaldehy 1.3788-9
 HCOOH           2.5673-8
 H2O             1.7180-1
 H2O2            8.4597-7
 *N              5.9256-7
 NCO             2.3926-9
 *NH             1.6346-7
 NH2             7.5514-8
 NH3             8.9108-8
 NH2OH           6.281-11
 *NO             7.1681-3
 NO2             4.3921-6
 NO3             1.219-11
 *N2             6.9678-1
 NCN             3.892-15
 N2H2            1.164-11
 NH2NO2          7.829-16
 N2H4            1.838-16
 N2O             1.5639-6
 N2O3            7.099-13
 N3              8.191-12
 N3H             2.434-12
 *O              1.1744-3
 *OH             1.0259-2
 *O2             9.6331-3
 O3              3.0677-9

  * THERMODYNAMIC PROPERTIES FITTED TO 20000.K


                     DETONATION PROPERTIES OF AN IDEAL REACTING GAS
 CASE =                

             REACTANT                       MOLES         ENERGY      TEMP
                                                         KJ/KG-MOL      K
 FUEL        CH4                          1.0000000    -74533.907    300.000
 OXIDANT     O2                           2.0000000        54.358    300.000
 OXIDANT     N2                           7.5238000        53.881    300.000

 O/F=   15.57032  %FUEL=  6.034887  R,EQ.RATIO= 1.100000  PHI,EQ.RATIO= 1.100000

 UNBURNED GAS

 P1, BAR           1.0000
 T1, K             300.00
 H1, KJ/KG        -278.63
 M1, (1/n)         27.524
 GAMMA1            1.3859
 SON VEL1,M/SEC     354.4

 BURNED GAS

 P, BAR            17.374
 T, K             2800.54
 RHO, KG/CU M    1.9905 0
 H, KJ/KG          874.59
 U, KJ/KG          1.7723
 G, KJ/KG        -25976.9
 S, KJ/(KG)(K)     9.5880

 M, (1/n)          26.678
 (dLV/dLP)t      -1.00600
 (dLV/dLT)p        1.1433
 Cp, KJ/(KG)(K)    2.6627
 GAMMAs            1.1723
 SON VEL,M/SEC     1011.5

 DETONATION PARAMETERS

 P/P1              17.374
 T/T1               9.335
 M/M1              0.9693
 RHO/RHO1          1.8039
 DET MACH NUMBER   5.1489
 DET VEL,M/SEC     1824.7

 MOLE FRACTIONS

 *C              2.651-13
 *CH             8.718-14
 CH2             2.429-13
 CH3             7.496-13
 CH2OH           3.445-13
 CH3O            7.102-14
 CH4             2.890-13
 CH3OH           2.752-14
 *CN             1.413-10
 *CO             3.7338-2
 *CO2            6.3020-2
 COOH            3.0708-7
 C2H2,acetylene  2.484-16
 CH2CO,ketene    1.128-14
 O(CH)2O         2.365-16
 HO(CO)2OH       6.951-16
 OCCN            1.271-14
 C2N2            1.282-16
 C2O             5.581-14
 *H              2.4365-3
 HCN             1.0715-8
 HCO             1.5014-7
 HCCO            4.303-15
 HNC             1.5664-9
 HNCO            3.5708-8
 HNO             1.0401-6
 HNO2            2.1321-7
 HNO3            1.487-11
 HO2             3.9725-6
 *H2             1.5297-2
 HCHO,formaldehy 4.0588-9
 HCOOH           4.3463-8
 H2O             1.7981-1
 H2O2            5.8351-7
 *N              6.9655-7
 NCO             4.1788-9
 *NH             2.4970-7
 NH2             1.4725-7
 NH3             2.1639-7
 NH2OH           9.685-11
 *NO             4.6018-3
 NO2             1.7467-6
 NO3             3.117-12
 *N2             6.8413-1
 NCN             1.237-14
 N2H2            2.304-11
 NH2NO2          5.677-16
 N2H4            6.427-16
 N2O             1.0050-6
 N2O3            1.831-13
 N3              9.502-12
 N3H             3.644-12
 *O              8.0199-4
 *OH             8.7769-3
 *O2             3.7779-3
 O3              8.082-10

  * THERMODYNAMIC PROPERTIES FITTED TO 20000.K


                     DETONATION PROPERTIES OF AN IDEAL REACTING GAS
 CASE =                

             REACTANT                       MOLES         ENERGY      TEMP
                                                         KJ/KG-MOL      K
 FUEL        CH4                          1.0000000    -74533.907    300.000
 OXIDANT     O2                           2.0000000        54.358    300.000
 OXIDANT     N2                           7.5238000        53.881    300.000

 O/F=   14.27279  %FUEL=  6.547592  R,EQ.RATIO= 1.200000  PHI,EQ.RATIO= 1.200000

 UNBURNED GAS

 P1, BAR           1.0000
 T1, K             300.00
 H1, KJ/KG        -302.46
 M1, (1/n)         27.417
 GAMMA1            1.3849
 SON VEL1,M/SEC     355.0

 BURNED GAS

 P, BAR            17.359
 T, K             2778.98
 RHO, KG/CU M    1.9710 0
 H, KJ/KG          856.72
 U, KJ/KG         -24.026
 G, KJ/KG        -26106.3
 S, KJ/(KG)(K)     9.7025

 M, (1/n)          26.234
 (dLV/dLP)t      -1.00407
 (dLV/dLT)p        1.0977
 Cp, KJ/(KG)(K)    2.3511
 GAMMAs            1.1881
 SON VEL,M/SEC     1023.0

 DETONATION PARAMETERS

 P/P1              17.359
 T/T1               9.263
 M/M1              0.9569
 RHO/RHO1          1.7932
 DET MACH NUMBER   5.1678
 DET VEL,M/SEC     1834.3

 MOLE FRACTIONS

 *C              5.050-13
 *CH             2.242-13
 CH2             8.689-13
 CH3             3.769-12
 CH2OH           1.025-12
 CH3O            2.079-13
 CH4             2.020-12
 CH3OH           1.127-13
 *CN             2.927-10
 CNN             1.802-16
 *CO             5.2624-2
 *CO2            5.4449-2
 COOH            3.2393-7
 C2H2,acetylene  2.261-15
 CH2CO,ketene    6.310-14
 O(CH)2O         7.789-16
 HO(CO)2OH       8.488-16
 OCCN            3.838-14
 C2N2            6.597-16
 C2O             1.658-13
 C3O2            3.537-16
 *H              2.9270-3
 HCN             3.1797-8
 HCO             2.6058-7
 HCCO            1.722-14
 HNC             4.5541-9
 HNCO            6.4497-8
 HNO             7.1985-7
 HNO2            8.7704-8
 HNO3            3.477-12
 HO2             1.6079-6
 *H2             2.5699-2
 HCHO,formaldehy 9.5971-9
 HCOOH           6.2553-8
 H2O             1.8383-1
 H2O2            3.2155-7
 *N              5.8730-7
 NCO             5.3506-9
 *NH             2.8431-7
 NH2             2.3004-7
 NH3             4.7420-7
 NH2OH           1.183-10
 *NO             2.4732-3
 NO2             5.3473-7
 NO3             5.256-13
 *N2             6.7010-1
 NCN             2.472-14
 N2H2            3.514-11
 NH2NO2          2.928-16
 N2H4            1.716-15
 N2O             5.3385-7
 N2O3            3.032-14
 N3              7.933-12
 N3H             4.134-12
 *O              4.1233-4
 *OH             6.2965-3
 *O2             1.1838-3
 O3              1.342-10

  * THERMODYNAMIC PROPERTIES FITTED TO 20000.K


                     DETONATION PROPERTIES OF AN IDEAL REACTING GAS
 CASE =                

             REACTANT                       MOLES         ENERGY      TEMP
                                                         KJ/KG-MOL      K
 FUEL        CH4                          1.0000000    -74533.907    300.000
 OXIDANT     O2                           2.0000000        54.358    300.000
 OXIDANT     N2                           7.5238000        53.881    300.000

 O/F=   13.17488  %FUEL=  7.054731  R,EQ.RATIO= 1.300000  PHI,EQ.RATIO= 1.300000

 UNBURNED GAS

 P1, BAR           1.0000
 T1, K             300.00
 H1, KJ/KG        -326.03
 M1, (1/n)         27.312
 GAMMA1            1.3839
 SON VEL1,M/SEC     355.5

 BURNED GAS

 P, BAR            17.134
 T, K             2723.54
 RHO, KG/CU M    1.9491 0
 H, KJ/KG          824.59
 U, KJ/KG         -54.487
 G, KJ/KG        -25890.5
 S, KJ/(KG)(K)     9.8090

 M, (1/n)          25.760
 (dLV/dLP)t      -1.00246
 (dLV/dLT)p        1.0591
 Cp, KJ/(KG)(K)    2.0799
 GAMMAs            1.2072
 SON VEL,M/SEC     1030.1

 DETONATION PARAMETERS

 P/P1              17.134
 T/T1               9.078
 M/M1              0.9432
 RHO/RHO1          1.7800
 DET MACH NUMBER   5.1578
 DET VEL,M/SEC     1833.7

 MOLE FRACTIONS

 *C              5.967-13
 *CH             3.646-13
 CH2             2.105-12
 CH3             1.399-11
 CH2OH           2.278-12
 CH3O            4.436-13
 CH4             1.115-11
 CH3OH           3.636-13
 *CN             4.363-10
 CNN             2.195-16
 *CO             6.7359-2
 *CO2            4.5920-2
 COOH            2.8824-7
 C2H             1.163-16
 C2H2,acetylene  1.376-14
 CH2CO,ketene    2.547-13
 O(CH)2O         1.863-15
 HO(CO)2OH       8.504-16
 OCCN            7.922-14
 C2N2            2.342-15
 C2O             3.242-13
 C3O2            1.095-15
 *H              2.9915-3
 HCN             7.6320-8
 HCO             3.6001-7
 HCCO            4.610-14
 HNC             1.0355-8
 HNCO            1.0009-7
 HNO             4.1587-7
 HNO2            3.0748-8
 HNO3            6.579-13
 HO2             5.3449-7
 *H2             3.9678-2
 HCHO,formaldehy 1.8695-8
 HCOOH           7.8790-8
 H2O             1.8340-1
 H2O2            1.5041-7
 *N              3.8226-7
 NCO             5.3716-9
 *NH             2.5487-7
 NH2             2.9623-7
 NH3             9.3001-7
 NH2OH           1.188-10
 *NO             1.1756-3
 NO2             1.3792-7
 NO3             6.729-14
 *N2             6.5502-1
 NCN             3.387-14
 N2H2            4.294-11
 NH2NO2          1.175-16
 N2H4            3.573-15
 N2O             2.4870-7
 N2O3            3.741-15
 N3              5.137-12
 N3H             3.751-12
 *O              1.7250-4
 *OH             3.9556-3
 *O2             3.2129-4
 O3              1.633-11

  * THERMODYNAMIC PROPERTIES FITTED TO 20000.K


                     DETONATION PROPERTIES OF AN IDEAL REACTING GAS
 CASE =                

             REACTANT                       MOLES         ENERGY      TEMP
                                                         KJ/KG-MOL      K
 FUEL        CH4                          1.0000000    -74533.907    300.000
 OXIDANT     O2                           2.0000000        54.358    300.000
 OXIDANT     N2                           7.5238000        53.881    300.000

 O/F=   12.23382  %FUEL=  7.556397  R,EQ.RATIO= 1.400000  PHI,EQ.RATIO= 1.400000

 UNBURNED GAS

 P1, BAR           1.0000
 T1, K             300.00
 H1, KJ/KG        -349.34
 M1, (1/n)         27.209
 GAMMA1            1.3830
 SON VEL1,M/SEC     356.1

 BURNED GAS

 P, BAR            16.824
 T, K             2650.34
 RHO, KG/CU M    1.9299 0
 H, KJ/KG          785.94
 U, KJ/KG         -85.814
 G, KJ/KG        -25475.1
 S, KJ/(KG)(K)     9.9085

 M, (1/n)          25.278
 (dLV/dLP)t      -1.00153
 (dLV/dLT)p        1.0366
 Cp, KJ/(KG)(K)    1.9239
 GAMMAs            1.2228
 SON VEL,M/SEC     1032.5

 DETONATION PARAMETERS

 P/P1              16.824
 T/T1               8.834
 M/M1              0.9290
 RHO/RHO1          1.7692
 DET MACH NUMBER   5.1300
 DET VEL,M/SEC     1826.6

 MOLE FRACTIONS

 *C              5.053-13
 *CH             4.239-13
 CH2             3.745-12
 CH3             3.963-11
 CH2OH           4.003-12
 CH3O            7.366-13
 CH4             4.830-11
 CH3OH           9.440-13
 *CN             5.117-10
 CNN             1.955-16
 *CO             8.0311-2
 *CO2            3.8754-2
 COOH            2.3109-7
 C2H             2.793-16
 C2H2,acetylene  5.899-14
 CH2CO,ketene    7.791-13
 O(CH)2O         3.481-15
 HO(CO)2OH       7.576-16
 CH3CO,acetyl    2.585-16
 OCCN            1.235-13
 C2N2            6.164-15
 C2O             4.673-13
 C3O2            2.529-15
 *H              2.7202-3
 HCN             1.5266-7
 HCO             4.2084-7
 HCCO            9.053-14
 HNC             1.9215-8
 HNCO            1.3799-7
 HNO             2.1739-7
 HNO2            1.0143-8
 HNO3            1.165-13
 HO2             1.6314-7
 *H2             5.6320-2
 HCHO,formaldehy 3.1023-8
 HCOOH           9.0163-8
 H2O             1.7929-1
 H2O2            6.4970-8
 *N              2.1183-7
 NCO             4.5947-9
 *NH             1.9400-7
 NH2             3.2837-7
 NH3             1.6280-6
 NH2OH           1.038-10
 *NO             5.3140-4
 NO2             3.3721-8
 NO3             7.867-15
 *N2             6.3961-1
 NCN             3.549-14
 N2H2            4.449-11
 N2H4            6.015-15
 N2O             1.0980-7
 N2O3            4.174-16
 N3              2.849-12
 N3H             2.926-12
 *O              6.5098-5
 *OH             2.3111-3
 *O2             8.3966-5
 O3              1.777-12

  * THERMODYNAMIC PROPERTIES FITTED TO 20000.K


                     DETONATION PROPERTIES OF AN IDEAL REACTING GAS
 CASE =                

             REACTANT                       MOLES         ENERGY      TEMP
                                                         KJ/KG-MOL      K
 FUEL        CH4                          1.0000000    -74533.907    300.000
 OXIDANT     O2                           2.0000000        54.358    300.000
 OXIDANT     N2                           7.5238000        53.881    300.000

 O/F=   11.41823  %FUEL=  8.052675  R,EQ.RATIO= 1.500000  PHI,EQ.RATIO= 1.500000

 UNBURNED GAS

 P1, BAR           1.0000
 T1, K             300.00
 H1, KJ/KG        -372.41
 M1, (1/n)         27.108
 GAMMA1            1.3821
 SON VEL1,M/SEC     356.6

 BURNED GAS

 P, BAR            16.485
 T, K             2569.91
 RHO, KG/CU M    1.9137 0
 H, KJ/KG          744.64
 U, KJ/KG         -116.80
 G, KJ/KG        -24960.0
 S, KJ/(KG)(K)    10.0021

 M, (1/n)          24.805
 (dLV/dLP)t      -1.00100
 (dLV/dLT)p        1.0239
 Cp, KJ/(KG)(K)    1.8407
 GAMMAs            1.2345
 SON VEL,M/SEC     1031.2

 DETONATION PARAMETERS

 P/P1              16.485
 T/T1               8.566
 M/M1              0.9150
 RHO/RHO1          1.7609
 DET MACH NUMBER   5.0920
 DET VEL,M/SEC     1815.9

 MOLE FRACTIONS

 *C              3.432-13
 *CH             3.907-13
 CH2             5.316-12
 CH3             9.075-11
 CH2OH           5.910-12
 CH3O            1.019-12
 CH4             1.705-10
 CH3OH           2.062-12
 *CN             5.090-10
 CNN             1.415-16
 *CO             9.1338-2
 *CO2            3.3170-2
 COOH            1.7481-7
 C2H             4.946-16
 C2H2,acetylene  1.925-13
 C2H2,vinylidene 1.889-16
 CH2CO,ketene    1.930-12
 O(CH)2O         5.465-15
 HO(CO)2OH       6.356-16
 CH3CN           2.204-16
 CH3CO,acetyl    6.854-16
 C2H4            1.373-16
 OCCN            1.588-13
 C2N2            1.301-14
 C2O             5.473-13
 C3O2            4.761-15
 *H              2.2833-3
 HCN             2.6539-7
 HCO             4.3894-7
 HCCO            1.426-13
 HNC             3.0605-8
 HNCO            1.7490-7
 HNO             1.0805-7
 HNO2            3.3150-9
 HNO3            2.077-14
 HO2             4.8584-8
 *H2             7.4483-2
 HCHO,formaldehy 4.5674-8
 HCOOH           9.6905-8
 H2O             1.7274-1
 H2O2            2.7204-8
 *N              1.0669-7
 NCO             3.5601-9
 *NH             1.3266-7
 NH2             3.2646-7
 NH3             2.5859-6
 NH2OH           8.267-11
 *NO             2.3738-4
 NO2             8.2863-9
 NO3             9.210-16
 *N2             6.2440-1
 NCN             3.104-14
 N2H2            4.103-11
 N2H4            8.592-15
 N2O             4.7870-8
 N3              1.443-12
 N3H             2.070-12
 *O              2.3520-5
 *OH             1.3029-3
 *O2             2.2240-5
 O3              1.913-13

  * THERMODYNAMIC PROPERTIES FITTED TO 20000.K


                     DETONATION PROPERTIES OF AN IDEAL REACTING GAS
 CASE =                

             REACTANT                       MOLES         ENERGY      TEMP
                                                         KJ/KG-MOL      K
 FUEL        CH4                          1.0000000    -74533.907    300.000
 OXIDANT     O2                           2.0000000        54.358    300.000
 OXIDANT     N2                           7.5238000        53.881    300.000

 O/F=   10.70459  %FUEL=  8.543654  R,EQ.RATIO= 1.600000  PHI,EQ.RATIO= 1.600000

 UNBURNED GAS

 P1, BAR           1.0000
 T1, K             300.00
 H1, KJ/KG        -395.23
 M1, (1/n)         27.008
 GAMMA1            1.3812
 SON VEL1,M/SEC     357.2

 BURNED GAS

 P, BAR            16.134
 T, K             2487.09
 RHO, KG/CU M    1.8995 0
 H, KJ/KG          701.99
 U, KJ/KG         -147.39
 G, KJ/KG        -24393.9
 S, KJ/(KG)(K)    10.0904

 M, (1/n)          24.346
 (dLV/dLP)t      -1.00068
 (dLV/dLT)p        1.0162
 Cp, KJ/(KG)(K)    1.7949
 GAMMAs            1.2435
 SON VEL,M/SEC     1027.7

 DETONATION PARAMETERS

 P/P1              16.134
 T/T1               8.290
 M/M1              0.9014
 RHO/RHO1          1.7543
 DET MACH NUMBER   5.0480
 DET VEL,M/SEC     1802.9

 MOLE FRACTIONS

 *C              1.996-13
 *CH             3.052-13
 CH2             6.401-12
 CH3             1.775-10
 CH2OH           7.694-12
 CH3O            1.237-12
 CH4             5.157-10
 CH3OH           3.965-12
 *CN             4.507-10
 *CO             1.0076-1
 *CO2            2.8894-2
 COOH            1.2772-7
 C2H             7.037-16
 C2H2,acetylene  5.144-13
 C2H2,vinylidene 3.839-16
 CH2CO,ketene    4.109-12
 O(CH)2O         7.606-15
 HO(CO)2OH       5.174-16
 CH3CN           8.228-16
 CH3CO,acetyl    1.511-15
 C2H4            5.993-16
 CH3CHO,ethanal  2.071-16
 OCCN            1.788-13
 C2N2            2.345-14
 C2O             5.553-13
 C3O2            7.800-15
 *H              1.8089-3
 HCN             4.1654-7
 HCO             4.2301-7
 HCCO            1.923-13
 HNC             4.3631-8
 HNCO            2.0922-7
 HNO             5.2062-8
 HNO2            1.0860-9
 HNO3            3.773-15
 HO2             1.4344-8
 *H2             9.3297-2
 HCHO,formaldehy 6.1741-8
 HCOOH           1.0004-7
 H2O             1.6475-1
 H2O2            1.1212-8
 *N              5.0328-8
 NCO             2.5837-9
 *NH             8.4046-8
 NH2             2.9957-7
 NH3             3.8118-6
 NH2OH           6.165-11
 *NO             1.0577-4
 NO2             2.0664-9
 NO3             1.098-16
 *N2             6.0964-1
 NCN             2.391-14
 N2H2            3.479-11
 N2H4            1.085-14
 N2O             2.0819-8
 N3              6.877-13
 N3H             1.367-12
 *O              8.2915-6
 *OH             7.1859-4
 *O2             6.0104-6
 O3              2.082-14

  * THERMODYNAMIC PROPERTIES FITTED TO 20000.K


                     DETONATION PROPERTIES OF AN IDEAL REACTING GAS
 CASE =                

             REACTANT                       MOLES         ENERGY      TEMP
                                                         KJ/KG-MOL      K
 FUEL        CH4                          1.0000000    -74533.907    300.000
 OXIDANT     O2                           2.0000000        54.358    300.000
 OXIDANT     N2                           7.5238000        53.881    300.000

 O/F=   10.07491  %FUEL=  9.029418  R,EQ.RATIO= 1.700000  PHI,EQ.RATIO= 1.700000

 UNBURNED GAS

 P1, BAR           1.0000
 T1, K             300.00
 H1, KJ/KG        -417.81
 M1, (1/n)         26.910
 GAMMA1            1.3803
 SON VEL1,M/SEC     357.7

 BURNED GAS

 P, BAR            15.776
 T, K             2404.02
 RHO, KG/CU M    1.8867 0
 H, KJ/KG          658.56
 U, KJ/KG         -177.61
 G, KJ/KG        -23799.9
 S, KJ/(KG)(K)    10.1740

 M, (1/n)          23.904
 (dLV/dLP)t      -1.00046
 (dLV/dLT)p        1.0111
 Cp, KJ/(KG)(K)    1.7692
 GAMMAs            1.2508
 SON VEL,M/SEC     1022.7

 DETONATION PARAMETERS

 P/P1              15.776
 T/T1               8.013
 M/M1              0.8883
 RHO/RHO1          1.7488
 DET MACH NUMBER   5.0000
 DET VEL,M/SEC     1788.5

 MOLE FRACTIONS

 *C              1.031-13
 *CH             2.102-13
 CH2             6.818-12
 CH3             3.092-10
 CH2OH           9.137-12
 CH3O            1.363-12
 CH4             1.3972-9
 CH3OH           6.961-12
 *CN             3.657-10
 *CO             1.0895-1
 *CO2            2.5595-2
 COOH            9.1095-8
 C2H             8.522-16
 C2H2,acetylene  1.191-12
 C2H2,vinylidene 6.623-16
 CH2CO,ketene    7.861-12
 O(CH)2O         9.733-15
 HO(CO)2OH       4.147-16
 C2H3,vinyl      2.177-16
 CH3CN           2.656-15
 CH3CO,acetyl    2.921-15
 C2H4            2.221-15
 CH3CHO,ethanal  5.698-16
 CH3COOH         1.376-16
 OCCN            1.829-13
 C2N2            3.778-14
 C2O             5.075-13
 C3O2            1.162-14
 *H              1.3698-3
 HCN             6.0733-7
 HCO             3.8477-7
 HCCO            2.318-13
 HNC             5.7373-8
 HNCO            2.4040-7
 HNO             2.4450-8
 HNO2            3.554-10
 HNO3            6.920-16
 HO2             4.1911-9
 *H2             1.1221-1
 HCHO,formaldehy 7.8526-8
 HCOOH           1.0057-7
 H2O             1.5600-1
 H2O2            4.5550-9
 *N              2.2509-8
 NCO             1.7869-9
 *NH             5.0129-8
 NH2             2.5850-7
 NH3             5.3175-6
 NH2OH           4.372-11
 *NO             4.6912-5
 NO2             5.189-10
 *N2             5.9544-1
 NCN             1.675-14
 N2H2            2.767-11
 N2H4            1.250-14
 N2O             9.0175-9
 N3              3.119-13
 N3H             8.552-13
 *O              2.8575-6
 *OH             3.8893-4
 *O2             1.6425-6
 O3              2.269-15

  * THERMODYNAMIC PROPERTIES FITTED TO 20000.K


                     DETONATION PROPERTIES OF AN IDEAL REACTING GAS
 CASE =                

             REACTANT                       MOLES         ENERGY      TEMP
                                                         KJ/KG-MOL      K
 FUEL        CH4                          1.0000000    -74533.907    300.000
 OXIDANT     O2                           2.0000000        54.358    300.000
 OXIDANT     N2                           7.5238000        53.881    300.000

 O/F=    9.51519  %FUEL=  9.510048  R,EQ.RATIO= 1.800000  PHI,EQ.RATIO= 1.800000

 UNBURNED GAS

 P1, BAR           1.0000
 T1, K             300.00
 H1, KJ/KG        -440.15
 M1, (1/n)         26.814
 GAMMA1            1.3795
 SON VEL1,M/SEC     358.2

 BURNED GAS

 P, BAR            15.411
 T, K             2321.55
 RHO, KG/CU M    1.8746 0
 H, KJ/KG          614.48
 U, KJ/KG         -207.59
 G, KJ/KG        -23188.8
 S, KJ/(KG)(K)    10.2531

 M, (1/n)          23.481
 (dLV/dLP)t      -1.00032
 (dLV/dLT)p        1.0076
 Cp, KJ/(KG)(K)    1.7551
 GAMMAs            1.2571
 SON VEL,M/SEC     1016.6

 DETONATION PARAMETERS

 P/P1              15.411
 T/T1               7.739
 M/M1              0.8757
 RHO/RHO1          1.7438
 DET MACH NUMBER   4.9488
 DET VEL,M/SEC     1772.8

 MOLE FRACTIONS

 *C              4.813-14
 *CH             1.306-13
 CH2             6.594-12
 CH3             4.942-10
 CH2OH           1.012-11
 CH3O            1.396-12
 CH4             3.5061-9
 CH3OH           1.145-11
 *CN             2.765-10
 *CO             1.1619-1
 *CO2            2.3006-2
 COOH            6.3686-8
 C2H             9.108-16
 C2H2,acetylene  2.486-12
 C2H2,vinylidene 1.009-15
 CH2CO,ketene    1.394-11
 O(CH)2O         1.172-14
 HO(CO)2OH       3.295-16
 C2H3,vinyl      4.346-16
 CH3CN           7.739-15
 CH3CO,acetyl    5.130-15
 C2H4            7.330-15
 CH3CHO,ethanal  1.427-15
 CH3COOH         2.783-16
 OCCN            1.738-13
 C2N2            5.602-14
 C2O             4.275-13
 C3O2            1.617-14
 *H              9.9794-4
 HCN             8.3900-7
 HCO             3.3443-7
 HCCO            2.566-13
 HNC             7.1002-8
 HNCO            2.6839-7
 HNO             1.1184-8
 HNO2            1.152-10
 HNO3            1.262-16
 HO2             1.2021-9
 *H2             1.3088-1
 HCHO,formaldehy 9.5524-8
 HCOOH           9.9267-8
 H2O             1.4689-1
 H2O2            1.8167-9
 *N              9.5767-9
 NCO             1.1872-9
 *NH             2.8360-8
 NH2             2.1215-7
 NH3             7.1244-6
 NH2OH           2.974-11
 *NO             2.0587-5
 NO2             1.295-10
 *N2             5.8180-1
 NCN             1.084-14
 N2H2            2.089-11
 N2H4            1.342-14
 N2O             3.8673-9
 N3              1.351-13
 N3H             5.108-13
 *O              9.5811-7
 *OH             2.0630-4
 *O2             4.4792-7
 O3              2.431-16

  * THERMODYNAMIC PROPERTIES FITTED TO 20000.K


                     DETONATION PROPERTIES OF AN IDEAL REACTING GAS
 CASE =                

             REACTANT                       MOLES         ENERGY      TEMP
                                                         KJ/KG-MOL      K
 FUEL        CH4                          1.0000000    -74533.907    300.000
 OXIDANT     O2                           2.0000000        54.358    300.000
 OXIDANT     N2                           7.5238000        53.881    300.000

 O/F=    9.01439  %FUEL=  9.985626  R,EQ.RATIO= 1.900000  PHI,EQ.RATIO= 1.900000

 UNBURNED GAS

 P1, BAR           1.0000
 T1, K             300.00
 H1, KJ/KG        -462.25
 M1, (1/n)         26.720
 GAMMA1            1.3786
 SON VEL1,M/SEC     358.7

 BURNED GAS

 P, BAR            15.040
 T, K             2240.13
 RHO, KG/CU M    1.8632 0
 H, KJ/KG          569.83
 U, KJ/KG         -237.38
 G, KJ/KG        -22566.5
 S, KJ/(KG)(K)    10.3281

 M, (1/n)          23.074
 (dLV/dLP)t      -1.00022
 (dLV/dLT)p        1.0052
 Cp, KJ/(KG)(K)    1.7481
 GAMMAs            1.2627
 SON VEL,M/SEC     1009.6

 DETONATION PARAMETERS

 P/P1              15.040
 T/T1               7.467
 M/M1              0.8635
 RHO/RHO1          1.7393
 DET MACH NUMBER   4.8949
 DET VEL,M/SEC     1756.0

 MOLE FRACTIONS

 *C              2.054-14
 *CH             7.425-14
 CH2             5.892-12
 CH3             7.406-10
 CH2OH           1.060-11
 CH3O            1.348-12
 CH4             8.3522-9
 CH3OH           1.797-11
 *CN             1.969-10
 *CO             1.2268-1
 *CO2            2.0938-2
 COOH            4.3704-8
 C2H             8.802-16
 C2H2,acetylene  4.803-12
 C2H2,vinylidene 1.397-15
 CH2CO,ketene    2.339-11
 O(CH)2O         1.348-14
 HO(CO)2OH       2.602-16
 C2H3,vinyl      7.885-16
 CH3CN           2.101-14
 CH3CO,acetyl    8.395-15
 C2H4            2.231-14
 CH3CHO,ethanal  3.347-15
 CH3COOH         5.379-16
 OCCN            1.557-13
 C2N2            7.806-14
 C2O             3.366-13
 C3O2            2.143-14
 *H              7.0213-4
 HCN             1.1135-6
 HCO             2.7986-7
 HCCO            2.656-13
 HNC             8.3848-8
 HNCO            2.9336-7
 HNO             4.9705-9
 HNO2            3.664-11
 HO2             3.355-10
 *H2             1.4914-1
 HCHO,formaldehy 1.1239-7
 HCOOH           9.6700-8
 H2O             1.3769-1
 H2O2            7.076-10
 *N              3.8764-9
 NCO             7.609-10
 *NH             1.5274-8
 NH2             1.6680-7
 NH3             9.2679-6
 NH2OH           1.950-11
 *NO             8.8840-6
 NO2             3.175-11
 *N2             5.6872-1
 NCN             6.562-15
 N2H2            1.508-11
 N2H4            1.360-14
 N2O             1.6322-9
 N3              5.587-14
 N3H             2.923-13
 *O              3.1062-7
 *OH             1.0696-4
 *O2             1.2039-7

  * THERMODYNAMIC PROPERTIES FITTED TO 20000.K


                     DETONATION PROPERTIES OF AN IDEAL REACTING GAS
 CASE =                

             REACTANT                       MOLES         ENERGY      TEMP
                                                         KJ/KG-MOL      K
 FUEL        CH4                          1.0000000    -74533.907    300.000
 OXIDANT     O2                           2.0000000        54.358    300.000
 OXIDANT     N2                           7.5238000        53.881    300.000

 O/F=    8.56367  %FUEL= 10.456232  R,EQ.RATIO= 2.000000  PHI,EQ.RATIO= 2.000000

 UNBURNED GAS

 P1, BAR           1.0000
 T1, K             300.00
 H1, KJ/KG        -484.13
 M1, (1/n)         26.627
 GAMMA1            1.3778
 SON VEL1,M/SEC     359.3

 BURNED GAS

 P, BAR            14.663
 T, K             2159.96
 RHO, KG/CU M    1.8521 0
 H, KJ/KG          524.69
 U, KJ/KG         -267.02
 G, KJ/KG        -21937.0
 S, KJ/(KG)(K)    10.3991

 M, (1/n)          22.684
 (dLV/dLP)t      -1.00015
 (dLV/dLT)p        1.0035
 Cp, KJ/(KG)(K)    1.7460
 GAMMAs            1.2678
 SON VEL,M/SEC     1001.9

 DETONATION PARAMETERS

 P/P1              14.663
 T/T1               7.200
 M/M1              0.8519
 RHO/RHO1          1.7350
 DET MACH NUMBER   4.8384
 DET VEL,M/SEC     1738.2

 MOLE FRACTIONS

 *C              8.048-15
 *CH             3.892-14
 CH2             4.920-12
 CH3             1.0557-9
 CH2OH           1.061-11
 CH3O            1.240-12
 CH4             1.9241-8
 CH3OH           2.728-11
 *CN             1.327-10
 *CO             1.2859-1
 *CO2            1.9255-2
 COOH            2.9437-8
 C2H             7.813-16
 C2H2,acetylene  8.768-12
 C2H2,vinylidene 1.790-15
 CH2CO,ketene    3.772-11
 O(CH)2O         1.496-14
 HO(CO)2OH       2.044-16
 C2H3,vinyl      1.329-15
 CH3CN           5.434-14
 CH3CO,acetyl    1.303-14
 C2H4            6.426-14
 CH3CHO,ethanal  7.509-15
 CH3COOH         1.010-15
 OCCN            1.326-13
 C2N2            1.037-13
 C2O             2.499-13
 C3O2            2.735-14
 *H              4.7792-4
 HCN             1.4336-6
 HCO             2.2651-7
 HCCO            2.601-13
 HNC             9.5396-8
 HNCO            3.1556-7
 HNO             2.1391-9
 HNO2            1.135-11
 HO2             9.031-11
 *H2             1.6688-1
 HCHO,formaldehy 1.2890-7
 HCOOH           9.3270-8
 H2O             1.2854-1
 H2O2            2.677-10
 *N              1.4901-9
 NCO             4.712-10
 *NH             7.8408-9
 NH2             1.2620-7
 NH3             1.1800-5
 NH2OH           1.235-11
 *NO             3.7477-6
 NO2             7.557-12
 *N2             5.5619-1
 NCN             3.732-15
 N2H2            1.046-11
 N2H4            1.316-14
 N2O             6.740-10
 N3              2.203-14
 N3H             1.605-13
 *O              9.6738-8
 *OH             5.4035-5
 *O2             3.1537-8

  * THERMODYNAMIC PROPERTIES FITTED TO 20000.K



