
 *******************************************************************************

         NASA-GLENN CHEMICAL EQUILIBRIUM PROGRAM CEA2, MAY 21, 2004
                   BY  BONNIE MCBRIDE AND SANFORD GORDON
      REFS: NASA RP-1311, PART I, 1994 AND NASA RP-1311, PART II, 1996

 *******************************************************************************



 problem    phi,eq.ratio=3.7,3.8,3.9,4,
       det   t,k=300,  p,bar=1,
 react
   fuel=CO moles=1 t,k=300
   oxid=O2 moles=0.5 t,k=300
 output
      trace=1e-16 siunits short
 end


                     DETONATION PROPERTIES OF AN IDEAL REACTING GAS
 CASE =                

             REACTANT                       MOLES         ENERGY      TEMP
                                                         KJ/KG-MOL      K
 FUEL        CO                           1.0000000   -110481.283    300.000
 OXIDANT     O2                           0.5000000        54.358    300.000

 O/F=    0.15438  %FUEL= 86.626687  R,EQ.RATIO= 1.574468  PHI,EQ.RATIO= 3.700000

 UNBURNED GAS

 P1, BAR           1.0000
 T1, K             300.00
 H1, KJ/KG       -3416.62
 M1, (1/n)         28.485
 GAMMA1            1.3986
 SON VEL1,M/SEC     350.0

 BURNED GAS

 P, BAR            15.381
 T, K             2957.39
 RHO, KG/CU M    2.0198 0
 H, KJ/KG        -2430.97
 U, KJ/KG        -3192.47
 G, KJ/KG        -27284.8
 S, KJ/(KG)(K)     8.4040

 M, (1/n)          32.290
 (dLV/dLP)t      -1.00134
 (dLV/dLT)p        1.0293
 Cp, KJ/(KG)(K)    1.5227
 GAMMAs            1.2163
 SON VEL,M/SEC      962.4

 DETONATION PARAMETERS

 P/P1              15.381
 T/T1               9.858
 M/M1              1.1336
 RHO/RHO1          1.7687
 DET MACH NUMBER   4.8639
 DET VEL,M/SEC     1702.2

 MOLE FRACTIONS

 *C              8.665-11
 *CO             7.3080-1
 *CO2            2.6785-1
 *C2             1.999-15
 C2O             1.576-10
 C3O2            2.122-12
 *O              6.5767-4
 *O2             6.9895-4
 O3              8.839-11

  * THERMODYNAMIC PROPERTIES FITTED TO 20000.K


                     DETONATION PROPERTIES OF AN IDEAL REACTING GAS
 CASE =                

             REACTANT                       MOLES         ENERGY      TEMP
                                                         KJ/KG-MOL      K
 FUEL        CO                           1.0000000   -110481.283    300.000
 OXIDANT     O2                           0.5000000        54.358    300.000

 O/F=    0.15032  %FUEL= 86.932628  R,EQ.RATIO= 1.583333  PHI,EQ.RATIO= 3.800000

 UNBURNED GAS

 P1, BAR           1.0000
 T1, K             300.00
 H1, KJ/KG       -3428.69
 M1, (1/n)         28.474
 GAMMA1            1.3986
 SON VEL1,M/SEC     350.0

 BURNED GAS

 P, BAR            15.154
 T, K             2912.86
 RHO, KG/CU M    2.0142 0
 H, KJ/KG        -2457.37
 U, KJ/KG        -3209.74
 G, KJ/KG        -26923.6
 S, KJ/(KG)(K)     8.3994

 M, (1/n)          32.190
 (dLV/dLP)t      -1.00093
 (dLV/dLT)p        1.0206
 Cp, KJ/(KG)(K)    1.4745
 GAMMAs            1.2218
 SON VEL,M/SEC      958.8

 DETONATION PARAMETERS

 P/P1              15.154
 T/T1               9.710
 M/M1              1.1305
 RHO/RHO1          1.7645
 DET MACH NUMBER   4.8330
 DET VEL,M/SEC     1691.7

 MOLE FRACTIONS

 *C              6.358-11
 *CO             7.3756-1
 *CO2            2.6150-1
 *C2             1.551-15
 C2O             1.390-10
 C3O2            2.181-12
 *O              4.6456-4
 *O2             4.7274-4
 O3              4.396-11

  * THERMODYNAMIC PROPERTIES FITTED TO 20000.K


                     DETONATION PROPERTIES OF AN IDEAL REACTING GAS
 CASE =                

             REACTANT                       MOLES         ENERGY      TEMP
                                                         KJ/KG-MOL      K
 FUEL        CO                           1.0000000   -110481.283    300.000
 OXIDANT     O2                           0.5000000        54.358    300.000

 O/F=    0.14646  %FUEL= 87.224885  R,EQ.RATIO= 1.591837  PHI,EQ.RATIO= 3.900000

 UNBURNED GAS

 P1, BAR           1.0000
 T1, K             300.00
 H1, KJ/KG       -3440.23
 M1, (1/n)         28.463
 GAMMA1            1.3987
 SON VEL1,M/SEC     350.1

 BURNED GAS

 P, BAR            14.933
 T, K             2868.67
 RHO, KG/CU M    2.0092 0
 H, KJ/KG        -2483.00
 U, KJ/KG        -3226.22
 G, KJ/KG        -26564.3
 S, KJ/(KG)(K)     8.3946

 M, (1/n)          32.092
 (dLV/dLP)t      -1.00064
 (dLV/dLT)p        1.0144
 Cp, KJ/(KG)(K)    1.4386
 GAMMAs            1.2265
 SON VEL,M/SEC      954.8

 DETONATION PARAMETERS

 P/P1              14.933
 T/T1               9.562
 M/M1              1.1275
 RHO/RHO1          1.7608
 DET MACH NUMBER   4.8018
 DET VEL,M/SEC     1681.1

 MOLE FRACTIONS

 *C              4.626-11
 *CO             7.4407-1
 *CO2            2.5529-1
 *C2             1.193-15
 C2O             1.221-10
 C3O2            2.240-12
 *O              3.2567-4
 *O2             3.1731-4
 O3              2.158-11

  * THERMODYNAMIC PROPERTIES FITTED TO 20000.K


                     DETONATION PROPERTIES OF AN IDEAL REACTING GAS
 CASE =                

             REACTANT                       MOLES         ENERGY      TEMP
                                                         KJ/KG-MOL      K
 FUEL        CO                           1.0000000   -110481.283    300.000
 OXIDANT     O2                           0.5000000        54.358    300.000

 O/F=    0.14280  %FUEL= 87.504354  R,EQ.RATIO= 1.600000  PHI,EQ.RATIO= 4.000000

 UNBURNED GAS

 P1, BAR           1.0000
 T1, K             300.00
 H1, KJ/KG       -3451.25
 M1, (1/n)         28.453
 GAMMA1            1.3987
 SON VEL1,M/SEC     350.2

 BURNED GAS

 P, BAR            14.719
 T, K             2825.17
 RHO, KG/CU M    2.0049 0
 H, KJ/KG        -2507.80
 U, KJ/KG        -3241.95
 G, KJ/KG        -26210.0
 S, KJ/(KG)(K)     8.3896

 M, (1/n)          31.996
 (dLV/dLP)t      -1.00044
 (dLV/dLT)p        1.0100
 Cp, KJ/(KG)(K)    1.4123
 GAMMAs            1.2304
 SON VEL,M/SEC      950.4

 DETONATION PARAMETERS

 P/P1              14.719
 T/T1               9.417
 M/M1              1.1245
 RHO/RHO1          1.7576
 DET MACH NUMBER   4.7704
 DET VEL,M/SEC     1670.4

 MOLE FRACTIONS

 *C              3.345-11
 *CO             7.5032-1
 *CO2            2.4924-1
 *C2             9.120-16
 C2O             1.069-10
 C3O2            2.300-12
 *O              2.2720-4
 *O2             2.1199-4
 O3              1.052-11

  * THERMODYNAMIC PROPERTIES FITTED TO 20000.K



