
 *******************************************************************************

         NASA-GLENN CHEMICAL EQUILIBRIUM PROGRAM CEA2, MAY 21, 2004
                   BY  BONNIE MCBRIDE AND SANFORD GORDON
      REFS: NASA RP-1311, PART I, 1994 AND NASA RP-1311, PART II, 1996

 *******************************************************************************



 problem    phi,eq.ratio=0.5,0.6,0.7,0.8,0.9,1,1.1,1.2,1.3,1.4,1.5,1.6,1.7,1.8,1.
 9,2,
       det   t,k=300,  p,bar=1,
 react
   fuel=H2 moles=1 t,k=300
   oxid=O2 moles=0.5 t,k=300
   oxid=N2 moles=1.8810 t,k=300
 output
      trace=1e-16 siunits short
 end


                     DETONATION PROPERTIES OF AN IDEAL REACTING GAS
 CASE =                

             REACTANT                       MOLES         ENERGY      TEMP
                                                         KJ/KG-MOL      K
 FUEL        H2                           1.0000000        53.359    300.000
 OXIDANT     O2                           0.5000000        54.358    300.000
 OXIDANT     N2                           1.8810000        53.881    300.000

 O/F=   68.15148  %FUEL=  1.446101  R,EQ.RATIO= 0.500000  PHI,EQ.RATIO= 0.500000

 UNBURNED GAS

 P1, BAR           1.0000
 T1, K             300.00
 H1, KJ/KG           2.23
 M1, (1/n)         24.193
 GAMMA1            1.3996
 SON VEL1,M/SEC     379.9

 BURNED GAS

 P, BAR            11.661
 T, K             2201.08
 RHO, KG/CU M    1.6862 0
 H, KJ/KG          867.94
 U, KJ/KG          176.39
 G, KJ/KG        -19625.8
 S, KJ/(KG)(K)     9.3108

 M, (1/n)          26.464
 (dLV/dLP)t      -1.00034
 (dLV/dLT)p        1.0107
 Cp, KJ/(KG)(K)    1.6668
 GAMMAs            1.2379
 SON VEL,M/SEC      925.3

 DETONATION PARAMETERS

 P/P1              11.661
 T/T1               7.337
 M/M1              1.0939
 RHO/RHO1          1.7385
 DET MACH NUMBER   4.2346
 DET VEL,M/SEC     1608.6

 MOLE FRACTIONS

 *H              2.4105-5
 HNO             1.4398-7
 HNO2            9.5752-7
 HNO3            4.703-10
 HO2             8.2373-6
 *H2             2.1028-4
 H2O             1.8793-1
 H2O2            6.6196-7
 *N              3.1127-9
 *NH             4.561-10
 NH2             1.941-10
 NH3             4.480-10
 NH2OH           7.124-13
 *NO             7.8726-3
 NO2             2.2591-5
 NO3             9.340-11
 *N2             7.1022-1
 N2H2            1.675-14
 N2O             1.4248-6
 N2O3            3.590-12
 N2O4            3.972-16
 N3              4.498-14
 N3H             8.927-15
 *O              2.3922-4
 *OH             3.3616-3
 *O2             9.0104-2
 O3              1.2410-8

  * THERMODYNAMIC PROPERTIES FITTED TO 20000.K


                     DETONATION PROPERTIES OF AN IDEAL REACTING GAS
 CASE =                

             REACTANT                       MOLES         ENERGY      TEMP
                                                         KJ/KG-MOL      K
 FUEL        H2                           1.0000000        53.359    300.000
 OXIDANT     O2                           0.5000000        54.358    300.000
 OXIDANT     N2                           1.8810000        53.881    300.000

 O/F=   56.79290  %FUEL=  1.730316  R,EQ.RATIO= 0.600000  PHI,EQ.RATIO= 0.600000

 UNBURNED GAS

 P1, BAR           1.0000
 T1, K             300.00
 H1, KJ/KG           2.30
 M1, (1/n)         23.449
 GAMMA1            1.3998
 SON VEL1,M/SEC     385.9

 BURNED GAS

 P, BAR            12.805
 T, K             2424.68
 RHO, KG/CU M    1.6515 0
 H, KJ/KG          987.58
 U, KJ/KG          212.21
 G, KJ/KG        -22303.7
 S, KJ/(KG)(K)     9.6059

 M, (1/n)          26.001
 (dLV/dLP)t      -1.00096
 (dLV/dLT)p        1.0268
 Cp, KJ/(KG)(K)    1.8715
 GAMMAs            1.2183
 SON VEL,M/SEC      971.9

 DETONATION PARAMETERS

 P/P1              12.805
 T/T1               8.082
 M/M1              1.1088
 RHO/RHO1          1.7567
 DET MACH NUMBER   4.4248
 DET VEL,M/SEC     1707.4

 MOLE FRACTIONS

 *H              1.5491-4
 HNO             4.6567-7
 HNO2            1.1443-6
 HNO3            3.981-10
 HO2             1.4362-5
 *H2             9.5888-4
 H2O             2.1843-1
 H2O2            1.2201-6
 *N              3.3120-8
 *NH             5.8276-9
 NH2             2.3253-9
 NH3             3.5979-9
 NH2OH           5.419-12
 *NO             1.0664-2
 NO2             2.1024-5
 NO3             9.939-11
 *N2             6.9431-1
 N2H2            2.458-13
 NH2NO2          3.696-16
 N2O             1.9944-6
 N2O3            4.388-12
 N2O4            3.169-16
 N3              4.278-13
 N3H             9.186-14
 *O              7.1626-4
 *OH             7.3877-3
 *O2             6.7338-2
 O3              1.8125-8

  * THERMODYNAMIC PROPERTIES FITTED TO 20000.K


                     DETONATION PROPERTIES OF AN IDEAL REACTING GAS
 CASE =                

             REACTANT                       MOLES         ENERGY      TEMP
                                                         KJ/KG-MOL      K
 FUEL        H2                           1.0000000        53.359    300.000
 OXIDANT     O2                           0.5000000        54.358    300.000
 OXIDANT     N2                           1.8810000        53.881    300.000

 O/F=   48.67963  %FUEL=  2.012897  R,EQ.RATIO= 0.700000  PHI,EQ.RATIO= 0.700000

 UNBURNED GAS

 P1, BAR           1.0000
 T1, K             300.00
 H1, KJ/KG           2.37
 M1, (1/n)         22.754
 GAMMA1            1.3999
 SON VEL1,M/SEC     391.7

 BURNED GAS

 P, BAR            13.754
 T, K             2611.23
 RHO, KG/CU M    1.6168 0
 H, KJ/KG         1095.87
 U, KJ/KG          245.17
 G, KJ/KG        -24713.6
 S, KJ/(KG)(K)     9.8840

 M, (1/n)          25.522
 (dLV/dLP)t      -1.00220
 (dLV/dLT)p        1.0550
 Cp, KJ/(KG)(K)    2.1429
 GAMMAs            1.2005
 SON VEL,M/SEC     1010.6

 DETONATION PARAMETERS

 P/P1              13.754
 T/T1               8.704
 M/M1              1.1217
 RHO/RHO1          1.7724
 DET MACH NUMBER   4.5723
 DET VEL,M/SEC     1791.2

 MOLE FRACTIONS

 *H              5.9970-4
 HNO             1.0304-6
 HNO2            1.1548-6
 HNO3            2.914-10
 HO2             1.8872-5
 *H2             3.0547-3
 H2O             2.4529-1
 H2O2            1.7509-6
 *N              1.7396-7
 *NH             3.6500-8
 NH2             1.4625-8
 NH3             1.7958-8
 NH2OH           2.415-11
 *NO             1.2095-2
 NO2             1.6923-5
 NO3             8.127-11
 *N2             6.7873-1
 N2H2            1.799-12
 NH2NO2          8.844-16
 N2O             2.3252-6
 N2O3            3.959-12
 N2O4            1.961-16
 N3              2.079-12
 N3H             4.958-13
 *O              1.4219-3
 *OH             1.2362-2
 *O2             4.6402-2
 O3              1.8727-8

  * THERMODYNAMIC PROPERTIES FITTED TO 20000.K


                     DETONATION PROPERTIES OF AN IDEAL REACTING GAS
 CASE =                

             REACTANT                       MOLES         ENERGY      TEMP
                                                         KJ/KG-MOL      K
 FUEL        H2                           1.0000000        53.359    300.000
 OXIDANT     O2                           0.5000000        54.358    300.000
 OXIDANT     N2                           1.8810000        53.881    300.000

 O/F=   42.59468  %FUEL=  2.293858  R,EQ.RATIO= 0.800000  PHI,EQ.RATIO= 0.800000

 UNBURNED GAS

 P1, BAR           1.0000
 T1, K             300.00
 H1, KJ/KG           2.44
 M1, (1/n)         22.102
 GAMMA1            1.4001
 SON VEL1,M/SEC     397.5

 BURNED GAS

 P, BAR            14.525
 T, K             2761.70
 RHO, KG/CU M    1.5826 0
 H, KJ/KG         1192.97
 U, KJ/KG          275.17
 G, KJ/KG        -26834.1
 S, KJ/(KG)(K)    10.1485

 M, (1/n)          25.019
 (dLV/dLP)t      -1.00430
 (dLV/dLT)p        1.0997
 Cp, KJ/(KG)(K)    2.5111
 GAMMAs            1.1845
 SON VEL,M/SEC     1042.6

 DETONATION PARAMETERS

 P/P1              14.525
 T/T1               9.206
 M/M1              1.1320
 RHO/RHO1          1.7861
 DET MACH NUMBER   4.6850
 DET VEL,M/SEC     1862.3

 MOLE FRACTIONS

 *H              1.6526-3
 HNO             1.7209-6
 HNO2            9.9150-7
 HNO3            1.793-10
 HO2             1.9539-5
 *H2             7.7614-3
 H2O             2.6765-1
 H2O2            2.0449-6
 *N              5.6069-7
 *NH             1.4112-7
 NH2             6.0135-8
 NH3             6.6470-8
 NH2OH           7.439-11
 *NO             1.1819-2
 NO2             1.1675-5
 NO3             5.101-11
 *N2             6.6345-1
 N2H2            8.273-12
 NH2NO2          1.488-15
 N2H4            1.057-16
 N2O             2.3204-6
 N2O3            2.663-12
 N3              6.334-12
 N3H             1.725-12
 *O              2.0701-3
 *OH             1.6878-2
 *O2             2.8686-2
 O3              1.4008-8

  * THERMODYNAMIC PROPERTIES FITTED TO 20000.K


                     DETONATION PROPERTIES OF AN IDEAL REACTING GAS
 CASE =                

             REACTANT                       MOLES         ENERGY      TEMP
                                                         KJ/KG-MOL      K
 FUEL        H2                           1.0000000        53.359    300.000
 OXIDANT     O2                           0.5000000        54.358    300.000
 OXIDANT     N2                           1.8810000        53.881    300.000

 O/F=   37.86193  %FUEL=  2.573212  R,EQ.RATIO= 0.900000  PHI,EQ.RATIO= 0.900000

 UNBURNED GAS

 P1, BAR           1.0000
 T1, K             300.00
 H1, KJ/KG           2.50
 M1, (1/n)         21.489
 GAMMA1            1.4002
 SON VEL1,M/SEC     403.1

 BURNED GAS

 P, BAR            15.111
 T, K             2873.15
 RHO, KG/CU M    1.5486 0
 H, KJ/KG         1277.06
 U, KJ/KG          301.28
 G, KJ/KG        -28607.4
 S, KJ/(KG)(K)    10.4013

 M, (1/n)          24.482
 (dLV/dLP)t      -1.00720
 (dLV/dLT)p        1.1592
 Cp, KJ/(KG)(K)    2.9795
 GAMMAs            1.1709
 SON VEL,M/SEC     1068.9

 DETONATION PARAMETERS

 P/P1              15.111
 T/T1               9.577
 M/M1              1.1392
 RHO/RHO1          1.7975
 DET MACH NUMBER   4.7659
 DET VEL,M/SEC     1921.4

 MOLE FRACTIONS

 *H              3.5098-3
 HNO             2.2625-6
 HNO2            7.2179-7
 HNO3            9.056-11
 HO2             1.6169-5
 *H2             1.6779-2
 H2O             2.8427-1
 H2O2            1.9743-6
 *N              1.2267-6
 *NH             3.7529-7
 NH2             1.7939-7
 NH3             1.9881-7
 NH2OH           1.709-10
 *NO             1.0043-2
 NO2             6.8155-6
 NO3             2.427-11
 *N2             6.4810-1
 N2H2            2.661-11
 NH2NO2          1.831-15
 N2H4            6.172-16
 N2O             1.9976-6
 N2O3            1.324-12
 N3              1.328-11
 N3H             4.257-12
 *O              2.3075-3
 *OH             1.9372-2
 *O2             1.5588-2
 O3              7.5573-9

  * THERMODYNAMIC PROPERTIES FITTED TO 20000.K


                     DETONATION PROPERTIES OF AN IDEAL REACTING GAS
 CASE =                

             REACTANT                       MOLES         ENERGY      TEMP
                                                         KJ/KG-MOL      K
 FUEL        H2                           1.0000000        53.359    300.000
 OXIDANT     O2                           0.5000000        54.358    300.000
 OXIDANT     N2                           1.8810000        53.881    300.000

 O/F=   34.07574  %FUEL=  2.850973  R,EQ.RATIO= 1.000000  PHI,EQ.RATIO= 1.000000

 UNBURNED GAS

 P1, BAR           1.0000
 T1, K             300.00
 H1, KJ/KG           2.57
 M1, (1/n)         20.913
 GAMMA1            1.4004
 SON VEL1,M/SEC     408.7

 BURNED GAS

 P, BAR            15.473
 T, K             2941.19
 RHO, KG/CU M    1.5126 0
 H, KJ/KG         1344.07
 U, KJ/KG          321.15
 G, KJ/KG        -29961.5
 S, KJ/(KG)(K)    10.6438

 M, (1/n)          23.907
 (dLV/dLP)t      -1.00956
 (dLV/dLT)p        1.2068
 Cp, KJ/(KG)(K)    3.3791
 GAMMAs            1.1632
 SON VEL,M/SEC     1090.8

 DETONATION PARAMETERS

 P/P1              15.473
 T/T1               9.804
 M/M1              1.1431
 RHO/RHO1          1.8041
 DET MACH NUMBER   4.8154
 DET VEL,M/SEC     1968.0

 MOLE FRACTIONS

 *H              5.9253-3
 HNO             2.4016-6
 HNO2            4.5365-7
 HNO3            3.839-11
 HO2             1.0992-5
 *H2             3.1391-2
 H2O             2.9419-1
 H2O2            1.6086-6
 *N              1.9101-6
 *NH             7.1693-7
 NH2             4.0164-7
 NH3             4.8917-7
 NH2OH           3.008-10
 *NO             7.5582-3
 NO2             3.4399-6
 NO3             9.057-12
 *N2             6.3218-1
 N2H2            6.196-11
 NH2NO2          1.699-15
 N2H4            2.434-15
 N2O             1.5077-6
 N2O3            5.044-13
 N3              1.998-11
 N3H             7.713-12
 *O              2.0399-3
 *OH             1.9102-2
 *O2             7.5887-3
 O3              3.0541-9

  * THERMODYNAMIC PROPERTIES FITTED TO 20000.K


                     DETONATION PROPERTIES OF AN IDEAL REACTING GAS
 CASE =                

             REACTANT                       MOLES         ENERGY      TEMP
                                                         KJ/KG-MOL      K
 FUEL        H2                           1.0000000        53.359    300.000
 OXIDANT     O2                           0.5000000        54.358    300.000
 OXIDANT     N2                           1.8810000        53.881    300.000

 O/F=   30.97795  %FUEL=  3.127155  R,EQ.RATIO= 1.100000  PHI,EQ.RATIO= 1.100000

 UNBURNED GAS

 P1, BAR           1.0000
 T1, K             300.00
 H1, KJ/KG           2.64
 M1, (1/n)         20.371
 GAMMA1            1.4005
 SON VEL1,M/SEC     414.1

 BURNED GAS

 P, BAR            15.608
 T, K             2968.98
 RHO, KG/CU M    1.4736 0
 H, KJ/KG         1392.68
 U, KJ/KG          333.49
 G, KJ/KG        -30902.4
 S, KJ/(KG)(K)    10.8775

 M, (1/n)          23.306
 (dLV/dLP)t      -1.00979
 (dLV/dLT)p        1.2105
 Cp, KJ/(KG)(K)    3.4769
 GAMMAs            1.1635
 SON VEL,M/SEC     1110.1

 DETONATION PARAMETERS

 P/P1              15.608
 T/T1               9.897
 M/M1              1.1441
 RHO/RHO1          1.8044
 DET MACH NUMBER   4.8372
 DET VEL,M/SEC     2003.1

 MOLE FRACTIONS

 *H              8.2163-3
 HNO             2.1621-6
 HNO2            2.6113-7
 HNO3            1.488-11
 HO2             6.5837-6
 *H2             5.1067-2
 H2O             2.9793-1
 H2O2            1.1660-6
 *N              2.2572-6
 *NH             1.0348-6
 NH2             6.9543-7
 NH3             9.9050-7
 NH2OH           4.198-10
 *NO             5.2710-3
 NO2             1.6116-6
 NO3             2.963-12
 *N2             6.1559-1
 N2H2            1.080-10
 NH2NO2          1.275-15
 N2H4            6.634-15
 N2O             1.0437-6
 N2O3            1.649-13
 N3              2.289-11
 N3H             1.072-11
 *O              1.5294-3
 *OH             1.6846-2
 *O2             3.5354-3
 O3              1.0405-9

  * THERMODYNAMIC PROPERTIES FITTED TO 20000.K


                     DETONATION PROPERTIES OF AN IDEAL REACTING GAS
 CASE =                

             REACTANT                       MOLES         ENERGY      TEMP
                                                         KJ/KG-MOL      K
 FUEL        H2                           1.0000000        53.359    300.000
 OXIDANT     O2                           0.5000000        54.358    300.000
 OXIDANT     N2                           1.8810000        53.881    300.000

 O/F=   28.39645  %FUEL=  3.401771  R,EQ.RATIO= 1.200000  PHI,EQ.RATIO= 1.200000

 UNBURNED GAS

 P1, BAR           1.0000
 T1, K             300.00
 H1, KJ/KG           2.71
 M1, (1/n)         19.858
 GAMMA1            1.4006
 SON VEL1,M/SEC     419.4

 BURNED GAS

 P, BAR            15.584
 T, K             2968.34
 RHO, KG/CU M    1.4335 0
 H, KJ/KG         1427.38
 U, KJ/KG          340.21
 G, KJ/KG        -31532.8
 S, KJ/(KG)(K)    11.1039

 M, (1/n)          22.701
 (dLV/dLP)t      -1.00865
 (dLV/dLT)p        1.1854
 Cp, KJ/(KG)(K)    3.3603
 GAMMAs            1.1689
 SON VEL,M/SEC     1127.3

 DETONATION PARAMETERS

 P/P1              15.584
 T/T1               9.894
 M/M1              1.1432
 RHO/RHO1          1.8006
 DET MACH NUMBER   4.8394
 DET VEL,M/SEC     2029.8

 MOLE FRACTIONS

 *H              9.8700-3
 HNO             1.7633-6
 HNO2            1.4681-7
 HNO3            5.758-12
 HO2             3.7534-6
 *H2             7.3878-2
 H2O             2.9729-1
 H2O2            7.9996-7
 *N              2.2184-6
 *NH             1.2236-6
 NH2             9.8978-7
 NH3             1.6979-6
 NH2OH           4.952-10
 *NO             3.5775-3
 NO2             7.5313-7
 NO3             9.525-13
 *N2             5.9869-1
 N2H2            1.515-10
 NH2NO2          8.482-16
 N2H4            1.345-14
 N2O             6.9799-7
 N2O3            5.223-14
 N3              2.185-11
 N3H             1.231-11
 *O              1.0518-3
 *OH             1.3952-2
 *O2             1.6772-3
 O3              3.392-10

  * THERMODYNAMIC PROPERTIES FITTED TO 20000.K


                     DETONATION PROPERTIES OF AN IDEAL REACTING GAS
 CASE =                

             REACTANT                       MOLES         ENERGY      TEMP
                                                         KJ/KG-MOL      K
 FUEL        H2                           1.0000000        53.359    300.000
 OXIDANT     O2                           0.5000000        54.358    300.000
 OXIDANT     N2                           1.8810000        53.881    300.000

 O/F=   26.21211  %FUEL=  3.674835  R,EQ.RATIO= 1.300000  PHI,EQ.RATIO= 1.300000

 UNBURNED GAS

 P1, BAR           1.0000
 T1, K             300.00
 H1, KJ/KG           2.78
 M1, (1/n)         19.373
 GAMMA1            1.4007
 SON VEL1,M/SEC     424.7

 BURNED GAS

 P, BAR            15.475
 T, K             2951.02
 RHO, KG/CU M    1.3945 0
 H, KJ/KG         1453.65
 U, KJ/KG          343.91
 G, KJ/KG        -31965.3
 S, KJ/(KG)(K)    11.3245

 M, (1/n)          22.110
 (dLV/dLP)t      -1.00733
 (dLV/dLT)p        1.1567
 Cp, KJ/(KG)(K)    3.2060
 GAMMAs            1.1759
 SON VEL,M/SEC     1142.4

 DETONATION PARAMETERS

 P/P1              15.475
 T/T1               9.837
 M/M1              1.1413
 RHO/RHO1          1.7954
 DET MACH NUMBER   4.8297
 DET VEL,M/SEC     2051.0

 MOLE FRACTIONS

 *H              1.0803-2
 HNO             1.3692-6
 HNO2            8.3567-8
 HNO3            2.327-12
 HO2             2.1335-6
 *H2             9.8022-2
 H2O             2.9400-1
 H2O2            5.4071-7
 *N              1.9570-6
 *NH             1.2763-6
 NH2             1.2344-6
 NH3             2.5720-6
 NH2OH           5.249-10
 *NO             2.4317-3
 NO2             3.6393-7
 NO3             3.194-13
 *N2             5.8196-1
 N2H2            1.837-10
 NH2NO2          5.358-16
 N2H4            2.216-14
 N2O             4.6568-7
 N2O3            1.712-14
 N3              1.876-11
 N3H             1.255-11
 *O              6.9959-4
 *OH             1.1231-2
 *O2             8.3239-4
 O3              1.135-10

  * THERMODYNAMIC PROPERTIES FITTED TO 20000.K


                     DETONATION PROPERTIES OF AN IDEAL REACTING GAS
 CASE =                

             REACTANT                       MOLES         ENERGY      TEMP
                                                         KJ/KG-MOL      K
 FUEL        H2                           1.0000000        53.359    300.000
 OXIDANT     O2                           0.5000000        54.358    300.000
 OXIDANT     N2                           1.8810000        53.881    300.000

 O/F=   24.33982  %FUEL=  3.946359  R,EQ.RATIO= 1.400000  PHI,EQ.RATIO= 1.400000

 UNBURNED GAS

 P1, BAR           1.0000
 T1, K             300.00
 H1, KJ/KG           2.84
 M1, (1/n)         18.914
 GAMMA1            1.4008
 SON VEL1,M/SEC     429.8

 BURNED GAS

 P, BAR            15.325
 T, K             2924.62
 RHO, KG/CU M    1.3575 0
 H, KJ/KG         1475.01
 U, KJ/KG          346.09
 G, KJ/KG        -32276.2
 S, KJ/(KG)(K)    11.5404

 M, (1/n)          21.540
 (dLV/dLP)t      -1.00622
 (dLV/dLT)p        1.1325
 Cp, KJ/(KG)(K)    3.0789
 GAMMAs            1.1828
 SON VEL,M/SEC     1155.6

 DETONATION PARAMETERS

 P/P1              15.325
 T/T1               9.749
 M/M1              1.1388
 RHO/RHO1          1.7902
 DET MACH NUMBER   4.8130
 DET VEL,M/SEC     2068.7

 MOLE FRACTIONS

 *H              1.1147-2
 HNO             1.0401-6
 HNO2            4.8751-8
 HNO3            9.922-13
 HO2             1.2316-6
 *H2             1.2238-1
 H2O             2.8924-1
 H2O2            3.6657-7
 *N              1.6236-6
 *NH             1.2325-6
 NH2             1.4118-6
 NH3             3.5705-6
 NH2OH           5.207-10
 *NO             1.6735-3
 NO2             1.8343-7
 NO3             1.136-13
 *N2             5.6571-1
 N2H2            2.031-10
 NH2NO2          3.326-16
 N2H4            3.173-14
 N2O             3.1399-7
 N2O3            5.927-15
 N3              1.517-11
 N3H             1.190-11
 *O              4.6170-4
 *OH             8.9458-3
 *O2             4.3364-4
 O3              3.993-11

  * THERMODYNAMIC PROPERTIES FITTED TO 20000.K


                     DETONATION PROPERTIES OF AN IDEAL REACTING GAS
 CASE =                

             REACTANT                       MOLES         ENERGY      TEMP
                                                         KJ/KG-MOL      K
 FUEL        H2                           1.0000000        53.359    300.000
 OXIDANT     O2                           0.5000000        54.358    300.000
 OXIDANT     N2                           1.8810000        53.881    300.000

 O/F=   22.71716  %FUEL=  4.216356  R,EQ.RATIO= 1.500000  PHI,EQ.RATIO= 1.500000

 UNBURNED GAS

 P1, BAR           1.0000
 T1, K             300.00
 H1, KJ/KG           2.91
 M1, (1/n)         18.479
 GAMMA1            1.4009
 SON VEL1,M/SEC     434.9

 BURNED GAS

 P, BAR            15.156
 T, K             2893.45
 RHO, KG/CU M    1.3227 0
 H, KJ/KG         1493.47
 U, KJ/KG          347.59
 G, KJ/KG        -32510.6
 S, KJ/(KG)(K)    11.7521

 M, (1/n)          20.995
 (dLV/dLP)t      -1.00533
 (dLV/dLT)p        1.1134
 Cp, KJ/(KG)(K)    2.9854
 GAMMAs            1.1892
 SON VEL,M/SEC     1167.3

 DETONATION PARAMETERS

 P/P1              15.156
 T/T1               9.645
 M/M1              1.1362
 RHO/RHO1          1.7854
 DET MACH NUMBER   4.7927
 DET VEL,M/SEC     2084.2

 MOLE FRACTIONS

 *H              1.1071-2
 HNO             7.8342-7
 HNO2            2.9197-8
 HNO3            4.452-13
 HO2             7.2585-7
 *H2             1.4633-1
 H2O             2.8369-1
 H2O2            2.5093-7
 *N              1.3001-6
 *NH             1.1342-6
 NH2             1.5245-6
 NH3             4.6594-6
 NH2OH           4.956-10
 *NO             1.1692-3
 NO2             9.6254-8
 NO3             4.283-14
 *N2             5.5007-1
 N2H2            2.112-10
 NH2NO2          2.062-16
 N2H4            4.128-14
 N2O             2.1479-7
 N2O3            2.170-15
 N3              1.186-11
 N3H             1.078-11
 *O              3.0567-4
 *OH             7.1089-3
 *O2             2.3597-4
 O3              1.480-11

  * THERMODYNAMIC PROPERTIES FITTED TO 20000.K


                     DETONATION PROPERTIES OF AN IDEAL REACTING GAS
 CASE =                

             REACTANT                       MOLES         ENERGY      TEMP
                                                         KJ/KG-MOL      K
 FUEL        H2                           1.0000000        53.359    300.000
 OXIDANT     O2                           0.5000000        54.358    300.000
 OXIDANT     N2                           1.8810000        53.881    300.000

 O/F=   21.29734  %FUEL=  4.484840  R,EQ.RATIO= 1.600000  PHI,EQ.RATIO= 1.600000

 UNBURNED GAS

 P1, BAR           1.0000
 T1, K             300.00
 H1, KJ/KG           2.97
 M1, (1/n)         18.065
 GAMMA1            1.4010
 SON VEL1,M/SEC     439.8

 BURNED GAS

 P, BAR            14.979
 T, K             2859.80
 RHO, KG/CU M    1.2899 0
 H, KJ/KG         1509.93
 U, KJ/KG          348.65
 G, KJ/KG        -32694.2
 S, KJ/(KG)(K)    11.9603

 M, (1/n)          20.476
 (dLV/dLP)t      -1.00462
 (dLV/dLT)p        1.0982
 Cp, KJ/(KG)(K)    2.9185
 GAMMAs            1.1950
 SON VEL,M/SEC     1178.0

 DETONATION PARAMETERS

 P/P1              14.979
 T/T1               9.533
 M/M1              1.1334
 RHO/RHO1          1.7810
 DET MACH NUMBER   4.7702
 DET VEL,M/SEC     2098.1

 MOLE FRACTIONS

 *H              1.0716-2
 HNO             5.8871-7
 HNO2            1.7909-8
 HNO3            2.087-13
 HO2             4.3652-7
 *H2             1.6958-1
 H2O             2.7775-1
 H2O2            1.7368-7
 *N              1.0189-6
 *NH             1.0109-6
 NH2             1.5817-6
 NH3             5.8130-6
 NH2OH           4.588-10
 *NO             8.2870-4
 NO2             5.2299-8
 NO3             1.698-14
 *N2             5.3512-1
 N2H2            2.106-10
 NH2NO2          1.284-16
 N2H4            5.017-14
 N2O             1.4903-7
 N2O3            8.346-16
 N3              9.089-12
 N3H             9.484-12
 *O              2.0377-4
 *OH             5.6553-3
 *O2             1.3320-4
 O3              5.753-12

  * THERMODYNAMIC PROPERTIES FITTED TO 20000.K


                     DETONATION PROPERTIES OF AN IDEAL REACTING GAS
 CASE =                

             REACTANT                       MOLES         ENERGY      TEMP
                                                         KJ/KG-MOL      K
 FUEL        H2                           1.0000000        53.359    300.000
 OXIDANT     O2                           0.5000000        54.358    300.000
 OXIDANT     N2                           1.8810000        53.881    300.000

 O/F=   20.04455  %FUEL=  4.751823  R,EQ.RATIO= 1.700000  PHI,EQ.RATIO= 1.700000

 UNBURNED GAS

 P1, BAR           1.0000
 T1, K             300.00
 H1, KJ/KG           3.04
 M1, (1/n)         17.672
 GAMMA1            1.4011
 SON VEL1,M/SEC     444.7

 BURNED GAS

 P, BAR            14.798
 T, K             2824.96
 RHO, KG/CU M    1.2589 0
 H, KJ/KG         1524.85
 U, KJ/KG          349.35
 G, KJ/KG        -32841.6
 S, KJ/(KG)(K)    12.1653

 M, (1/n)          19.981
 (dLV/dLP)t      -1.00403
 (dLV/dLT)p        1.0857
 Cp, KJ/(KG)(K)    2.8708
 GAMMAs            1.2003
 SON VEL,M/SEC     1187.8

 DETONATION PARAMETERS

 P/P1              14.798
 T/T1               9.417
 M/M1              1.1307
 RHO/RHO1          1.7769
 DET MACH NUMBER   4.7460
 DET VEL,M/SEC     2110.6

 MOLE FRACTIONS

 *H              1.0184-2
 HNO             4.4257-7
 HNO2            1.1213-8
 HNO3            1.015-13
 HO2             2.6732-7
 *H2             1.9198-1
 H2O             2.7166-1
 H2O2            1.2149-7
 *N              7.8758-7
 *NH             8.8143-7
 NH2             1.5945-6
 NH3             7.0121-6
 NH2OH           4.168-10
 *NO             5.9486-4
 NO2             2.9259-8
 NO3             7.026-15
 *N2             5.2085-1
 N2H2            2.039-10
 N2H4            5.800-14
 N2O             1.0473-7
 N2O3            3.349-16
 N3              6.878-12
 N3H             8.176-12
 *O              1.3689-4
 *OH             4.5097-3
 *O2             7.7496-5
 O3              2.329-12

  * THERMODYNAMIC PROPERTIES FITTED TO 20000.K


                     DETONATION PROPERTIES OF AN IDEAL REACTING GAS
 CASE =                

             REACTANT                       MOLES         ENERGY      TEMP
                                                         KJ/KG-MOL      K
 FUEL        H2                           1.0000000        53.359    300.000
 OXIDANT     O2                           0.5000000        54.358    300.000
 OXIDANT     N2                           1.8810000        53.881    300.000

 O/F=   18.93097  %FUEL=  5.017318  R,EQ.RATIO= 1.800000  PHI,EQ.RATIO= 1.800000

 UNBURNED GAS

 P1, BAR           1.0000
 T1, K             300.00
 H1, KJ/KG           3.11
 M1, (1/n)         17.298
 GAMMA1            1.4012
 SON VEL1,M/SEC     449.5

 BURNED GAS

 P, BAR            14.617
 T, K             2789.71
 RHO, KG/CU M    1.2296 0
 H, KJ/KG         1538.66
 U, KJ/KG          349.84
 G, KJ/KG        -32962.7
 S, KJ/(KG)(K)    12.3674

 M, (1/n)          19.511
 (dLV/dLP)t      -1.00353
 (dLV/dLT)p        1.0754
 Cp, KJ/(KG)(K)    2.8371
 GAMMAs            1.2051
 SON VEL,M/SEC     1196.9

 DETONATION PARAMETERS

 P/P1              14.617
 T/T1               9.299
 M/M1              1.1280
 RHO/RHO1          1.7730
 DET MACH NUMBER   4.7211
 DET VEL,M/SEC     2122.2

 MOLE FRACTIONS

 *H              9.5506-3
 HNO             3.3337-7
 HNO2            7.1480-9
 HNO3            5.099-14
 HO2             1.6636-7
 *H2             2.1346-1
 H2O             2.6556-1
 H2O2            8.5834-8
 *N              6.0337-7
 *NH             7.5664-7
 NH2             1.5734-6
 NH3             8.2436-6
 NH2OH           3.736-10
 *NO             4.3180-4
 NO2             1.6782-8
 NO3             3.015-15
 *N2             5.0724-1
 N2H2            1.931-10
 N2H4            6.461-14
 N2O             7.4444-8
 N2O3            1.394-16
 N3              5.165-12
 N3H             6.950-12
 *O              9.2686-5
 *OH             3.6070-3
 *O2             4.6244-5
 O3              9.769-13

  * THERMODYNAMIC PROPERTIES FITTED TO 20000.K


                     DETONATION PROPERTIES OF AN IDEAL REACTING GAS
 CASE =                

             REACTANT                       MOLES         ENERGY      TEMP
                                                         KJ/KG-MOL      K
 FUEL        H2                           1.0000000        53.359    300.000
 OXIDANT     O2                           0.5000000        54.358    300.000
 OXIDANT     N2                           1.8810000        53.881    300.000

 O/F=   17.93460  %FUEL=  5.281337  R,EQ.RATIO= 1.900000  PHI,EQ.RATIO= 1.900000

 UNBURNED GAS

 P1, BAR           1.0000
 T1, K             300.00
 H1, KJ/KG           3.17
 M1, (1/n)         16.941
 GAMMA1            1.4013
 SON VEL1,M/SEC     454.2

 BURNED GAS

 P, BAR            14.437
 T, K             2754.48
 RHO, KG/CU M    1.2018 0
 H, KJ/KG         1551.51
 U, KJ/KG          350.15
 G, KJ/KG        -33063.4
 S, KJ/(KG)(K)    12.5668

 M, (1/n)          19.063
 (dLV/dLP)t      -1.00311
 (dLV/dLT)p        1.0667
 Cp, KJ/(KG)(K)    2.8135
 GAMMAs            1.2096
 SON VEL,M/SEC     1205.5

 DETONATION PARAMETERS

 P/P1              14.437
 T/T1               9.182
 M/M1              1.1253
 RHO/RHO1          1.7695
 DET MACH NUMBER   4.6959
 DET VEL,M/SEC     2133.0

 MOLE FRACTIONS

 *H              8.8670-3
 HNO             2.5173-7
 HNO2            4.6267-9
 HNO3            2.629-14
 HO2             1.0498-7
 *H2             2.3401-1
 H2O             2.5953-1
 H2O2            6.1177-8
 *N              4.5943-7
 *NH             6.4204-7
 NH2             1.5275-6
 NH3             9.4977-6
 NH2OH           3.317-10
 *NO             3.1645-4
 NO2             9.8281-9
 NO3             1.335-15
 *N2             4.9428-1
 N2H2            1.800-10
 N2H4            6.990-14
 N2O             5.3447-8
 N3              3.858-12
 N3H             5.848-12
 *O              6.3205-5
 *OH             2.8936-3
 *O2             2.8184-5
 O3              4.222-13

  * THERMODYNAMIC PROPERTIES FITTED TO 20000.K


                     DETONATION PROPERTIES OF AN IDEAL REACTING GAS
 CASE =                

             REACTANT                       MOLES         ENERGY      TEMP
                                                         KJ/KG-MOL      K
 FUEL        H2                           1.0000000        53.359    300.000
 OXIDANT     O2                           0.5000000        54.358    300.000
 OXIDANT     N2                           1.8810000        53.881    300.000

 O/F=   17.03787  %FUEL=  5.543892  R,EQ.RATIO= 2.000000  PHI,EQ.RATIO= 2.000000

 UNBURNED GAS

 P1, BAR           1.0000
 T1, K             300.00
 H1, KJ/KG           3.23
 M1, (1/n)         16.600
 GAMMA1            1.4014
 SON VEL1,M/SEC     458.9

 BURNED GAS

 P, BAR            14.260
 T, K             2719.53
 RHO, KG/CU M    1.1753 0
 H, KJ/KG         1563.55
 U, KJ/KG          350.29
 G, KJ/KG        -33147.7
 S, KJ/(KG)(K)    12.7637

 M, (1/n)          18.637
 (dLV/dLP)t      -1.00275
 (dLV/dLT)p        1.0591
 Cp, KJ/(KG)(K)    2.7976
 GAMMAs            1.2138
 SON VEL,M/SEC     1213.5

 DETONATION PARAMETERS

 P/P1              14.260
 T/T1               9.065
 M/M1              1.1227
 RHO/RHO1          1.7661
 DET MACH NUMBER   4.6704
 DET VEL,M/SEC     2143.2

 MOLE FRACTIONS

 *H              8.1681-3
 HNO             1.9059-7
 HNO2            3.0343-9
 HNO3            1.386-14
 HO2             6.7052-8
 *H2             2.5364-1
 H2O             2.5363-1
 H2O2            4.3945-8
 *N              3.4833-7
 *NH             5.4002-7
 NH2             1.4640-6
 NH3             1.0767-5
 NH2OH           2.924-10
 *NO             2.3385-4
 NO2             5.8588-9
 NO3             6.065-16
 *N2             4.8192-1
 N2H2            1.657-10
 N2H4            7.392-14
 N2O             3.8706-8
 N3              2.873-12
 N3H             4.884-12
 *O              4.3380-5
 *OH             2.3279-3
 *O2             1.7485-5
 O3              1.872-13

  * THERMODYNAMIC PROPERTIES FITTED TO 20000.K



