
 *******************************************************************************

         NASA-GLENN CHEMICAL EQUILIBRIUM PROGRAM CEA2, MAY 21, 2004
                   BY  BONNIE MCBRIDE AND SANFORD GORDON
      REFS: NASA RP-1311, PART I, 1994 AND NASA RP-1311, PART II, 1996

 *******************************************************************************



 problem    phi,eq.ratio=0.5,0.6,0.7,0.8,0.9,1,1.1,1.2,1.3,1.4,1.5,1.6,1.7,1.8,1.
 9,2,
       det   t,k=300,  p,bar=1,
 react
   fuel=H2 moles=1 t,k=300
   oxid=O2 moles=0.5 t,k=300
 output
      trace=1e-16 siunits short
 end


                     DETONATION PROPERTIES OF AN IDEAL REACTING GAS
 CASE =                

             REACTANT                       MOLES         ENERGY      TEMP
                                                         KJ/KG-MOL      K
 FUEL        H2                           1.0000000        53.359    300.000
 OXIDANT     O2                           0.5000000        54.358    300.000

 O/F=   15.87337  %FUEL=  5.926500  R,EQ.RATIO= 0.500000  PHI,EQ.RATIO= 0.500000

 UNBURNED GAS

 P1, BAR           1.0000
 T1, K             300.00
 H1, KJ/KG           3.17
 M1, (1/n)         17.007
 GAMMA1            1.3997
 SON VEL1,M/SEC     453.1

 BURNED GAS

 P, BAR            17.663
 T, K             3458.59
 RHO, KG/CU M    1.2510 0
 H, KJ/KG         1891.05
 U, KJ/KG          479.16
 G, KJ/KG        -43197.6
 S, KJ/(KG)(K)    13.0367

 M, (1/n)          20.367
 (dLV/dLP)t      -1.04390
 (dLV/dLT)p        1.7949
 Cp, KJ/(KG)(K)    8.2685
 GAMMAs            1.1301
 SON VEL,M/SEC     1263.2

 DETONATION PARAMETERS

 P/P1              17.663
 T/T1              11.529
 M/M1              1.1976
 RHO/RHO1          1.8348
 DET MACH NUMBER   5.1153
 DET VEL,M/SEC     2317.6

 MOLE FRACTIONS

 *H              2.4862-2
 HO2             4.6754-4
 *H2             3.7746-2
 H2O             4.7320-1
 H2O2            3.2288-5
 *O              5.3750-2
 *OH             1.5027-1
 *O2             2.5967-1
 O3              1.9207-6

  * THERMODYNAMIC PROPERTIES FITTED TO 20000.K


                     DETONATION PROPERTIES OF AN IDEAL REACTING GAS
 CASE =                

             REACTANT                       MOLES         ENERGY      TEMP
                                                         KJ/KG-MOL      K
 FUEL        H2                           1.0000000        53.359    300.000
 OXIDANT     O2                           0.5000000        54.358    300.000

 O/F=   13.22780  %FUEL=  7.028491  R,EQ.RATIO= 0.600000  PHI,EQ.RATIO= 0.600000

 UNBURNED GAS

 P1, BAR           1.0000
 T1, K             300.00
 H1, KJ/KG           3.44
 M1, (1/n)         15.644
 GAMMA1            1.4001
 SON VEL1,M/SEC     472.5

 BURNED GAS

 P, BAR            18.015
 T, K             3542.91
 RHO, KG/CU M    1.1519 0
 H, KJ/KG         2098.49
 U, KJ/KG          534.49
 G, KJ/KG        -47446.0
 S, KJ/(KG)(K)    13.9841

 M, (1/n)          18.835
 (dLV/dLP)t      -1.05548
 (dLV/dLT)p        1.9703
 Cp, KJ/(KG)(K)   10.0943
 GAMMAs            1.1290
 SON VEL,M/SEC     1328.8

 DETONATION PARAMETERS

 P/P1              18.015
 T/T1              11.810
 M/M1              1.2039
 RHO/RHO1          1.8365
 DET MACH NUMBER   5.1652
 DET VEL,M/SEC     2440.5

 MOLE FRACTIONS

 *H              3.6683-2
 HO2             4.2417-4
 *H2             5.7200-2
 H2O             5.0005-1
 H2O2            3.2201-5
 *O              5.6007-2
 *OH             1.6170-1
 *O2             1.8790-1
 O3              1.3942-6

  * THERMODYNAMIC PROPERTIES FITTED TO 20000.K


                     DETONATION PROPERTIES OF AN IDEAL REACTING GAS
 CASE =                

             REACTANT                       MOLES         ENERGY      TEMP
                                                         KJ/KG-MOL      K
 FUEL        H2                           1.0000000        53.359    300.000
 OXIDANT     O2                           0.5000000        54.358    300.000

 O/F=   11.33812  %FUEL=  8.104964  R,EQ.RATIO= 0.700000  PHI,EQ.RATIO= 0.700000

 UNBURNED GAS

 P1, BAR           1.0000
 T1, K             300.00
 H1, KJ/KG           3.71
 M1, (1/n)         14.509
 GAMMA1            1.4005
 SON VEL1,M/SEC     490.7

 BURNED GAS

 P, BAR            18.269
 T, K             3601.37
 RHO, KG/CU M    1.0689 0
 H, KJ/KG         2296.04
 U, KJ/KG          586.79
 G, KJ/KG        -51341.9
 S, KJ/(KG)(K)    14.8937

 M, (1/n)          17.519
 (dLV/dLP)t      -1.06583
 (dLV/dLT)p        2.1239
 Cp, KJ/(KG)(K)   11.9111
 GAMMAs            1.1286
 SON VEL,M/SEC     1388.9

 DETONATION PARAMETERS

 P/P1              18.269
 T/T1              12.005
 M/M1              1.2074
 RHO/RHO1          1.8376
 DET MACH NUMBER   5.2012
 DET VEL,M/SEC     2552.2

 MOLE FRACTIONS

 *H              4.8875-2
 HO2             3.6334-4
 *H2             7.9838-2
 H2O             5.1756-1
 H2O2            3.0234-5
 *O              5.4222-2
 *OH             1.6459-1
 *O2             1.3452-1
 O3              9.4425-7

  * THERMODYNAMIC PROPERTIES FITTED TO 20000.K


                     DETONATION PROPERTIES OF AN IDEAL REACTING GAS
 CASE =                

             REACTANT                       MOLES         ENERGY      TEMP
                                                         KJ/KG-MOL      K
 FUEL        H2                           1.0000000        53.359    300.000
 OXIDANT     O2                           0.5000000        54.358    300.000

 O/F=    9.92085  %FUEL=  9.156794  R,EQ.RATIO= 0.800000  PHI,EQ.RATIO= 0.800000

 UNBURNED GAS

 P1, BAR           1.0000
 T1, K             300.00
 H1, KJ/KG           3.97
 M1, (1/n)         13.548
 GAMMA1            1.4009
 SON VEL1,M/SEC     507.9

 BURNED GAS

 P, BAR            18.451
 T, K             3640.17
 RHO, KG/CU M    9.9837-1
 H, KJ/KG         2484.46
 U, KJ/KG          636.34
 G, KJ/KG        -54918.9
 S, KJ/(KG)(K)    15.7694

 M, (1/n)          16.377
 (dLV/dLP)t      -1.07419
 (dLV/dLT)p        2.2468
 Cp, KJ/(KG)(K)   13.6337
 GAMMAs            1.1284
 SON VEL,M/SEC     1444.1

 DETONATION PARAMETERS

 P/P1              18.451
 T/T1              12.134
 M/M1              1.2088
 RHO/RHO1          1.8382
 DET MACH NUMBER   5.2268
 DET VEL,M/SEC     2654.5

 MOLE FRACTIONS

 *H              6.0619-2
 HO2             2.9832-4
 *H2             1.0523-1
 H2O             5.2769-1
 H2O2            2.7164-5
 *O              4.9787-2
 *OH             1.6097-1
 *O2             9.5381-2
 O3              6.0654-7

  * THERMODYNAMIC PROPERTIES FITTED TO 20000.K


                     DETONATION PROPERTIES OF AN IDEAL REACTING GAS
 CASE =                

             REACTANT                       MOLES         ENERGY      TEMP
                                                         KJ/KG-MOL      K
 FUEL        H2                           1.0000000        53.359    300.000
 OXIDANT     O2                           0.5000000        54.358    300.000

 O/F=    8.81854  %FUEL= 10.184817  R,EQ.RATIO= 0.900000  PHI,EQ.RATIO= 0.900000

 UNBURNED GAS

 P1, BAR           1.0000
 T1, K             300.00
 H1, KJ/KG           4.22
 M1, (1/n)         12.724
 GAMMA1            1.4011
 SON VEL1,M/SEC     524.1

 BURNED GAS

 P, BAR            18.574
 T, K             3663.22
 RHO, KG/CU M    9.3781-1
 H, KJ/KG         2663.83
 U, KJ/KG          683.20
 G, KJ/KG        -58196.7
 S, KJ/(KG)(K)    16.6140

 M, (1/n)          15.378
 (dLV/dLP)t      -1.07976
 (dLV/dLT)p        2.3279
 Cp, KJ/(KG)(K)   15.1342
 GAMMAs            1.1285
 SON VEL,M/SEC     1495.0

 DETONATION PARAMETERS

 P/P1              18.574
 T/T1              12.211
 M/M1              1.2086
 RHO/RHO1          1.8384
 DET MACH NUMBER   5.2443
 DET VEL,M/SEC     2748.5

 MOLE FRACTIONS

 *H              7.1226-2
 HO2             2.3704-4
 *H2             1.3285-1
 H2O             5.3197-1
 H2O2            2.3592-5
 *O              4.3898-2
 *OH             1.5271-1
 *O2             6.7080-2
 O3              3.7359-7

  * THERMODYNAMIC PROPERTIES FITTED TO 20000.K


                     DETONATION PROPERTIES OF AN IDEAL REACTING GAS
 CASE =                

             REACTANT                       MOLES         ENERGY      TEMP
                                                         KJ/KG-MOL      K
 FUEL        H2                           1.0000000        53.359    300.000
 OXIDANT     O2                           0.5000000        54.358    300.000

 O/F=    7.93668  %FUEL= 11.189834  R,EQ.RATIO= 1.000000  PHI,EQ.RATIO= 1.000000

 UNBURNED GAS

 P1, BAR           1.0000
 T1, K             300.00
 H1, KJ/KG           4.47
 M1, (1/n)         12.010
 GAMMA1            1.4014
 SON VEL1,M/SEC     539.5

 BURNED GAS

 P, BAR            18.648
 T, K             3673.33
 RHO, KG/CU M    8.8518-1
 H, KJ/KG         2834.01
 U, KJ/KG          727.29
 G, KJ/KG        -61191.3
 S, KJ/(KG)(K)    17.4298

 M, (1/n)          14.497
 (dLV/dLP)t      -1.08202
 (dLV/dLT)p        2.3596
 Cp, KJ/(KG)(K)   16.2840
 GAMMAs            1.1288
 SON VEL,M/SEC     1542.1

 DETONATION PARAMETERS

 P/P1              18.648
 T/T1              12.244
 M/M1              1.2071
 RHO/RHO1          1.8384
 DET MACH NUMBER   5.2548
 DET VEL,M/SEC     2834.9

 MOLE FRACTIONS

 *H              8.0193-2
 HO2             1.8354-4
 *H2             1.6216-1
 H2O             5.3163-1
 H2O2            1.9953-5
 *O              3.7485-2
 *OH             1.4145-1
 *O2             4.6876-2
 O3              2.2252-7

  * THERMODYNAMIC PROPERTIES FITTED TO 20000.K


                     DETONATION PROPERTIES OF AN IDEAL REACTING GAS
 CASE =                

             REACTANT                       MOLES         ENERGY      TEMP
                                                         KJ/KG-MOL      K
 FUEL        H2                           1.0000000        53.359    300.000
 OXIDANT     O2                           0.5000000        54.358    300.000

 O/F=    7.21517  %FUEL= 12.172608  R,EQ.RATIO= 1.100000  PHI,EQ.RATIO= 1.100000

 UNBURNED GAS

 P1, BAR           1.0000
 T1, K             300.00
 H1, KJ/KG           4.71
 M1, (1/n)         11.386
 GAMMA1            1.4016
 SON VEL1,M/SEC     554.1

 BURNED GAS

 P, BAR            18.679
 T, K             3672.77
 RHO, KG/CU M    8.3900-1
 H, KJ/KG         2994.86
 U, KJ/KG          768.52
 G, KJ/KG        -63918.6
 S, KJ/(KG)(K)    18.2188

 M, (1/n)          13.716
 (dLV/dLP)t      -1.08100
 (dLV/dLT)p        2.3419
 Cp, KJ/(KG)(K)   17.0059
 GAMMAs            1.1293
 SON VEL,M/SEC     1585.6

 DETONATION PARAMETERS

 P/P1              18.679
 T/T1              12.243
 M/M1              1.2047
 RHO/RHO1          1.8381
 DET MACH NUMBER   5.2595
 DET VEL,M/SEC     2914.5

 MOLE FRACTIONS

 *H              8.7221-2
 HO2             1.3924-4
 *H2             1.9259-1
 H2O             5.2768-1
 H2O2            1.6521-5
 *O              3.1197-2
 *OH             1.2855-1
 *O2             3.2606-2
 O3              1.2907-7

  * THERMODYNAMIC PROPERTIES FITTED TO 20000.K


                     DETONATION PROPERTIES OF AN IDEAL REACTING GAS
 CASE =                

             REACTANT                       MOLES         ENERGY      TEMP
                                                         KJ/KG-MOL      K
 FUEL        H2                           1.0000000        53.359    300.000
 OXIDANT     O2                           0.5000000        54.358    300.000

 O/F=    6.61390  %FUEL= 13.133870  R,EQ.RATIO= 1.200000  PHI,EQ.RATIO= 1.200000

 UNBURNED GAS

 P1, BAR           1.0000
 T1, K             300.00
 H1, KJ/KG           4.95
 M1, (1/n)         10.834
 GAMMA1            1.4018
 SON VEL1,M/SEC     568.1

 BURNED GAS

 P, BAR            18.672
 T, K             3663.45
 RHO, KG/CU M    7.9812-1
 H, KJ/KG         3146.30
 U, KJ/KG          806.83
 G, KJ/KG        -66396.0
 S, KJ/(KG)(K)    18.9827

 M, (1/n)          13.020
 (dLV/dLP)t      -1.07732
 (dLV/dLT)p        2.2834
 Cp, KJ/(KG)(K)   17.3022
 GAMMAs            1.1301
 SON VEL,M/SEC     1626.0

 DETONATION PARAMETERS

 P/P1              18.672
 T/T1              12.211
 M/M1              1.2017
 RHO/RHO1          1.8375
 DET MACH NUMBER   5.2592
 DET VEL,M/SEC     2987.7

 MOLE FRACTIONS

 *H              9.2211-2
 HO2             1.0394-4
 *H2             2.2362-1
 H2O             5.2096-1
 H2O2            1.3453-5
 *O              2.5434-2
 *OH             1.1504-1
 *O2             2.2613-2
 O3              7.3339-8

  * THERMODYNAMIC PROPERTIES FITTED TO 20000.K


                     DETONATION PROPERTIES OF AN IDEAL REACTING GAS
 CASE =                

             REACTANT                       MOLES         ENERGY      TEMP
                                                         KJ/KG-MOL      K
 FUEL        H2                           1.0000000        53.359    300.000
 OXIDANT     O2                           0.5000000        54.358    300.000

 O/F=    6.10514  %FUEL= 14.074317  R,EQ.RATIO= 1.300000  PHI,EQ.RATIO= 1.300000

 UNBURNED GAS

 P1, BAR           1.0000
 T1, K             300.00
 H1, KJ/KG           5.19
 M1, (1/n)         10.344
 GAMMA1            1.4020
 SON VEL1,M/SEC     581.4

 BURNED GAS

 P, BAR            18.632
 T, K             3647.01
 RHO, KG/CU M    7.6166-1
 H, KJ/KG         3288.42
 U, KJ/KG          842.21
 G, KJ/KG        -68641.7
 S, KJ/(KG)(K)    19.7230

 M, (1/n)          12.396
 (dLV/dLP)t      -1.07188
 (dLV/dLT)p        2.1974
 Cp, KJ/(KG)(K)   17.2424
 GAMMAs            1.1312
 SON VEL,M/SEC     1663.5

 DETONATION PARAMETERS

 P/P1              18.632
 T/T1              12.157
 M/M1              1.1983
 RHO/RHO1          1.8366
 DET MACH NUMBER   5.2544
 DET VEL,M/SEC     3055.1

 MOLE FRACTIONS

 *H              9.5223-2
 HO2             7.6625-5
 *H2             2.5479-1
 H2O             5.1216-1
 H2O2            1.0810-5
 *O              2.0396-2
 *OH             1.0169-1
 *O2             1.5658-2
 O3              4.1025-8

  * THERMODYNAMIC PROPERTIES FITTED TO 20000.K


                     DETONATION PROPERTIES OF AN IDEAL REACTING GAS
 CASE =                

             REACTANT                       MOLES         ENERGY      TEMP
                                                         KJ/KG-MOL      K
 FUEL        H2                           1.0000000        53.359    300.000
 OXIDANT     O2                           0.5000000        54.358    300.000

 O/F=    5.66906  %FUEL= 14.994619  R,EQ.RATIO= 1.400000  PHI,EQ.RATIO= 1.400000

 UNBURNED GAS

 P1, BAR           1.0000
 T1, K             300.00
 H1, KJ/KG           5.41
 M1, (1/n)          9.906
 GAMMA1            1.4021
 SON VEL1,M/SEC     594.2

 BURNED GAS

 P, BAR            18.563
 T, K             3624.87
 RHO, KG/CU M    7.2891-1
 H, KJ/KG         3421.43
 U, KJ/KG          874.70
 G, KJ/KG        -70674.6
 S, KJ/(KG)(K)    20.4410

 M, (1/n)          11.834
 (dLV/dLP)t      -1.06557
 (dLV/dLT)p        2.0975
 Cp, KJ/(KG)(K)   16.9282
 GAMMAs            1.1325
 SON VEL,M/SEC     1698.3

 DETONATION PARAMETERS

 P/P1              18.563
 T/T1              12.083
 M/M1              1.1947
 RHO/RHO1          1.8354
 DET MACH NUMBER   5.2460
 DET VEL,M/SEC     3117.1

 MOLE FRACTIONS

 *H              9.6427-2
 HO2             5.5950-5
 *H2             2.8571-1
 H2O             5.0181-1
 H2O2            8.5968-6
 *O              1.6143-2
 *OH             8.9006-2
 *O2             1.0839-2
 O3              2.2690-8

  * THERMODYNAMIC PROPERTIES FITTED TO 20000.K


                     DETONATION PROPERTIES OF AN IDEAL REACTING GAS
 CASE =                

             REACTANT                       MOLES         ENERGY      TEMP
                                                         KJ/KG-MOL      K
 FUEL        H2                           1.0000000        53.359    300.000
 OXIDANT     O2                           0.5000000        54.358    300.000

 O/F=    5.29112  %FUEL= 15.895416  R,EQ.RATIO= 1.500000  PHI,EQ.RATIO= 1.500000

 UNBURNED GAS

 P1, BAR           1.0000
 T1, K             300.00
 H1, KJ/KG           5.64
 M1, (1/n)          9.512
 GAMMA1            1.4023
 SON VEL1,M/SEC     606.4

 BURNED GAS

 P, BAR            18.471
 T, K             3598.22
 RHO, KG/CU M    6.9934-1
 H, KJ/KG         3545.65
 U, KJ/KG          904.40
 G, KJ/KG        -72513.2
 S, KJ/(KG)(K)    21.1379

 M, (1/n)          11.327
 (dLV/dLP)t      -1.05908
 (dLV/dLT)p        1.9942
 Cp, KJ/(KG)(K)   16.4592
 GAMMAs            1.1342
 SON VEL,M/SEC     1730.8

 DETONATION PARAMETERS

 P/P1              18.471
 T/T1              11.994
 M/M1              1.1909
 RHO/RHO1          1.8340
 DET MACH NUMBER   5.2344
 DET VEL,M/SEC     3174.2

 MOLE FRACTIONS

 *H              9.6062-2
 HO2             4.0566-5
 *H2             3.1606-1
 H2O             4.9037-1
 H2O2            6.7829-6
 *O              1.2645-2
 *OH             7.7298-2
 *O2             7.5095-3
 O3              1.2453-8

  * THERMODYNAMIC PROPERTIES FITTED TO 20000.K


                     DETONATION PROPERTIES OF AN IDEAL REACTING GAS
 CASE =                

             REACTANT                       MOLES         ENERGY      TEMP
                                                         KJ/KG-MOL      K
 FUEL        H2                           1.0000000        53.359    300.000
 OXIDANT     O2                           0.5000000        54.358    300.000

 O/F=    4.96043  %FUEL= 16.777322  R,EQ.RATIO= 1.600000  PHI,EQ.RATIO= 1.600000

 UNBURNED GAS

 P1, BAR           1.0000
 T1, K             300.00
 H1, KJ/KG           5.85
 M1, (1/n)          9.155
 GAMMA1            1.4024
 SON VEL1,M/SEC     618.1

 BURNED GAS

 P, BAR            18.359
 T, K             3568.08
 RHO, KG/CU M    6.7249-1
 H, KJ/KG         3661.49
 U, KJ/KG          931.42
 G, KJ/KG        -74175.3
 S, KJ/(KG)(K)    21.8148

 M, (1/n)          10.867
 (dLV/dLP)t      -1.05285
 (dLV/dLT)p        1.8946
 Cp, KJ/(KG)(K)   15.9148
 GAMMAs            1.1360
 SON VEL,M/SEC     1761.1

 DETONATION PARAMETERS

 P/P1              18.359
 T/T1              11.894
 M/M1              1.1870
 RHO/RHO1          1.8323
 DET MACH NUMBER   5.2202
 DET VEL,M/SEC     3226.9

 MOLE FRACTIONS

 *H              9.4396-2
 HO2             2.9266-5
 *H2             3.4561-1
 H2O             4.7821-1
 H2O2            5.3202-6
 *O              9.8265-3
 *OH             6.6718-2
 *O2             5.2117-3
 O3              6.8027-9

  * THERMODYNAMIC PROPERTIES FITTED TO 20000.K


                     DETONATION PROPERTIES OF AN IDEAL REACTING GAS
 CASE =                

             REACTANT                       MOLES         ENERGY      TEMP
                                                         KJ/KG-MOL      K
 FUEL        H2                           1.0000000        53.359    300.000
 OXIDANT     O2                           0.5000000        54.358    300.000

 O/F=    4.66864  %FUEL= 17.640925  R,EQ.RATIO= 1.700000  PHI,EQ.RATIO= 1.700000

 UNBURNED GAS

 P1, BAR           1.0000
 T1, K             300.00
 H1, KJ/KG           6.07
 M1, (1/n)          8.830
 GAMMA1            1.4025
 SON VEL1,M/SEC     629.4

 BURNED GAS

 P, BAR            18.231
 T, K             3535.28
 RHO, KG/CU M    6.4800-1
 H, KJ/KG         3769.41
 U, KJ/KG          955.93
 G, KJ/KG        -75677.7
 S, KJ/(KG)(K)    22.4727

 M, (1/n)          10.448
 (dLV/dLP)t      -1.04711
 (dLV/dLT)p        1.8024
 Cp, KJ/(KG)(K)   15.3492
 GAMMAs            1.1381
 SON VEL,M/SEC     1789.4

 DETONATION PARAMETERS

 P/P1              18.231
 T/T1              11.784
 M/M1              1.1832
 RHO/RHO1          1.8305
 DET MACH NUMBER   5.2039
 DET VEL,M/SEC     3275.5

 MOLE FRACTIONS

 *H              9.1696-2
 HO2             2.1044-5
 *H2             3.7415-1
 H2O             4.6560-1
 H2O2            4.1552-6
 *O              7.5896-3
 *OH             5.7311-2
 *O2             3.6259-3
 O3              3.7080-9

  * THERMODYNAMIC PROPERTIES FITTED TO 20000.K


                     DETONATION PROPERTIES OF AN IDEAL REACTING GAS
 CASE =                

             REACTANT                       MOLES         ENERGY      TEMP
                                                         KJ/KG-MOL      K
 FUEL        H2                           1.0000000        53.359    300.000
 OXIDANT     O2                           0.5000000        54.358    300.000

 O/F=    4.40927  %FUEL= 18.486789  R,EQ.RATIO= 1.800000  PHI,EQ.RATIO= 1.800000

 UNBURNED GAS

 P1, BAR           1.0000
 T1, K             300.00
 H1, KJ/KG           6.28
 M1, (1/n)          8.534
 GAMMA1            1.4026
 SON VEL1,M/SEC     640.3

 BURNED GAS

 P, BAR            18.090
 T, K             3500.52
 RHO, KG/CU M    6.2557-1
 H, KJ/KG         3869.88
 U, KJ/KG          978.09
 G, KJ/KG        -77035.7
 S, KJ/(KG)(K)    23.1125

 M, (1/n)          10.065
 (dLV/dLP)t      -1.04194
 (dLV/dLT)p        1.7191
 Cp, KJ/(KG)(K)   14.7954
 GAMMAs            1.1403
 SON VEL,M/SEC     1815.9

 DETONATION PARAMETERS

 P/P1              18.090
 T/T1              11.668
 M/M1              1.1794
 RHO/RHO1          1.8285
 DET MACH NUMBER   5.1858
 DET VEL,M/SEC     3320.4

 MOLE FRACTIONS

 *H              8.8212-2
 HO2             1.5102-5
 *H2             4.0156-1
 H2O             4.5279-1
 H2O2            3.2360-6
 *O              5.8353-3
 *OH             4.9052-2
 *O2             2.5303-3
 O3              2.0207-9

  * THERMODYNAMIC PROPERTIES FITTED TO 20000.K


                     DETONATION PROPERTIES OF AN IDEAL REACTING GAS
 CASE =                

             REACTANT                       MOLES         ENERGY      TEMP
                                                         KJ/KG-MOL      K
 FUEL        H2                           1.0000000        53.359    300.000
 OXIDANT     O2                           0.5000000        54.358    300.000

 O/F=    4.17720  %FUEL= 19.315455  R,EQ.RATIO= 1.900000  PHI,EQ.RATIO= 1.900000

 UNBURNED GAS

 P1, BAR           1.0000
 T1, K             300.00
 H1, KJ/KG           6.48
 M1, (1/n)          8.262
 GAMMA1            1.4027
 SON VEL1,M/SEC     650.7

 BURNED GAS

 P, BAR            17.939
 T, K             3464.35
 RHO, KG/CU M    6.0496-1
 H, KJ/KG         3963.39
 U, KJ/KG          998.07
 G, KJ/KG        -78263.1
 S, KJ/(KG)(K)    23.7350

 M, (1/n)           9.714
 (dLV/dLP)t      -1.03736
 (dLV/dLT)p        1.6447
 Cp, KJ/(KG)(K)   14.2708
 GAMMAs            1.1427
 SON VEL,M/SEC     1840.8

 DETONATION PARAMETERS

 P/P1              17.939
 T/T1              11.548
 M/M1              1.1757
 RHO/RHO1          1.8263
 DET MACH NUMBER   5.1662
 DET VEL,M/SEC     3361.9

 MOLE FRACTIONS

 *H              8.4165-2
 HO2             1.0829-5
 *H2             4.2776-1
 H2O             4.3995-1
 H2O2            2.5155-6
 *O              4.4715-3
 *OH             4.1867-2
 *O2             1.7717-3
 O3              1.1027-9

  * THERMODYNAMIC PROPERTIES FITTED TO 20000.K


                     DETONATION PROPERTIES OF AN IDEAL REACTING GAS
 CASE =                

             REACTANT                       MOLES         ENERGY      TEMP
                                                         KJ/KG-MOL      K
 FUEL        H2                           1.0000000        53.359    300.000
 OXIDANT     O2                           0.5000000        54.358    300.000

 O/F=    3.96834  %FUEL= 20.127441  R,EQ.RATIO= 2.000000  PHI,EQ.RATIO= 2.000000

 UNBURNED GAS

 P1, BAR           1.0000
 T1, K             300.00
 H1, KJ/KG           6.68
 M1, (1/n)          8.012
 GAMMA1            1.4028
 SON VEL1,M/SEC     660.8

 BURNED GAS

 P, BAR            17.780
 T, K             3427.22
 RHO, KG/CU M    5.8594-1
 H, KJ/KG         4050.39
 U, KJ/KG         1016.01
 G, KJ/KG        -79372.1
 S, KJ/(KG)(K)    24.3411

 M, (1/n)           9.391
 (dLV/dLP)t      -1.03331
 (dLV/dLT)p        1.5788
 Cp, KJ/(KG)(K)   13.7830
 GAMMAs            1.1452
 SON VEL,M/SEC     1864.1

 DETONATION PARAMETERS

 P/P1              17.780
 T/T1              11.424
 M/M1              1.1720
 RHO/RHO1          1.8241
 DET MACH NUMBER   5.1456
 DET VEL,M/SEC     3400.4

 MOLE FRACTIONS

 *H              7.9742-2
 HO2             7.7647-6
 *H2             4.5270-1
 H2O             4.2723-1
 H2O2            1.9535-6
 *O              3.4183-3
 *OH             3.5661-2
 *O2             1.2451-3
 O3              6.032-10

  * THERMODYNAMIC PROPERTIES FITTED TO 20000.K



