
 *******************************************************************************

         NASA-GLENN CHEMICAL EQUILIBRIUM PROGRAM CEA2, MAY 21, 2004
                   BY  BONNIE MCBRIDE AND SANFORD GORDON
      REFS: NASA RP-1311, PART I, 1994 AND NASA RP-1311, PART II, 1996

 *******************************************************************************



 problem    phi,eq.ratio=3.7,3.8,3.9,4,
       det   t,k=300,  p,bar=1,
 react
   fuel=CO moles=0.5 t,k=300
   oxid=O2 moles=1 t,k=300
   oxid=N2 moles=3.7619 t,k=300
   fuel=H2 moles=0.5 t,k=300
 output
      trace=1e-16 siunits short
 end


                     DETONATION PROPERTIES OF AN IDEAL REACTING GAS
 CASE =                

             REACTANT                       MOLES         ENERGY      TEMP
                                                         KJ/KG-MOL      K
 FUEL        CO                           0.5000000   -110481.283    300.000
 OXIDANT     O2                           1.0000000        54.358    300.000
 OXIDANT     N2                           3.7619000        53.881    300.000
 FUEL        H2                           0.5000000        53.359    300.000

 O/F=    1.23661  %FUEL= 44.710552  R,EQ.RATIO= 1.947368  PHI,EQ.RATIO= 3.700000

 UNBURNED GAS

 P1, BAR           1.0000
 T1, K             300.00
 H1, KJ/KG       -1643.31
 M1, (1/n)         20.431
 GAMMA1            1.4006
 SON VEL1,M/SEC     413.5

 BURNED GAS

 P, BAR            11.693
 T, K             2212.06
 RHO, KG/CU M    1.4146 0
 H, KJ/KG         -612.66
 U, KJ/KG        -1439.21
 G, KJ/KG        -24607.3
 S, KJ/(KG)(K)    10.8472

 M, (1/n)          22.252
 (dLV/dLP)t      -1.00023
 (dLV/dLT)p        1.0055
 Cp, KJ/(KG)(K)    1.8417
 GAMMAs            1.2577
 SON VEL,M/SEC     1019.6

 DETONATION PARAMETERS

 P/P1              11.693
 T/T1               7.374
 M/M1              1.0891
 RHO/RHO1          1.7271
 DET MACH NUMBER   4.2584
 DET VEL,M/SEC     1760.9

 MOLE FRACTIONS

 *C              4.166-14
 *CH             1.638-13
 CH2             1.502-11
 CH3             2.2316-9
 CH2OH           2.368-11
 CH3O            2.927-12
 CH4             2.9201-8
 CH3OH           4.560-11
 *CN             3.289-10
 *CO             2.9153-1
 *CO2            3.9810-2
 COOH            7.3574-8
 C2H             5.096-15
 C2H2,acetylene  3.504-11
 C2H2,vinylidene 9.032-15
 CH2CO,ketene    1.369-10
 O(CH)2O         5.807-14
 HO(CO)2OH       6.976-16
 C2H3,vinyl      5.513-15
 CH3CN           1.163-13
 CH3CO,acetyl    4.775-14
 C2H4            1.845-13
 CH3CHO,ethanal  2.127-14
 CH3COOH         2.690-15
 OCCN            5.167-13
 C2N2            2.465-13
 C2O             1.558-12
 C3O2            2.188-13
 *H              7.7309-4
 HCN             2.2855-6
 HCO             5.9955-7
 HCCO            1.331-12
 HNC             1.6499-7
 HNCO            4.7385-7
 HNO             2.6784-9
 HNO2            1.477-11
 HO2             1.884-10
 *H2             1.9170-1
 HCHO,formaldehy 2.6714-7
 HCOOH           1.8125-7
 H2O             1.3920-1
 H2O2            4.396-10
 *N              2.4388-9
 NCO             1.0332-9
 *NH             1.0449-8
 NH2             1.2831-7
 NH3             8.3887-6
 NH2OH           1.163-11
 *NO             4.8285-6
 NO2             1.187-11
 *N2             3.3688-1
 NCN             7.076-15
 N2H2            7.701-12
 N2H4            7.551-15
 N2O             6.025-10
 N3              1.660-14
 N3H             9.576-14
 *O              2.2243-7
 *OH             8.9007-5
 *O2             6.8000-8

  * THERMODYNAMIC PROPERTIES FITTED TO 20000.K


                     DETONATION PROPERTIES OF AN IDEAL REACTING GAS
 CASE =                

             REACTANT                       MOLES         ENERGY      TEMP
                                                         KJ/KG-MOL      K
 FUEL        CO                           0.5000000   -110481.283    300.000
 OXIDANT     O2                           1.0000000        54.358    300.000
 OXIDANT     N2                           3.7619000        53.881    300.000
 FUEL        H2                           0.5000000        53.359    300.000

 O/F=    1.20407  %FUEL= 45.370689  R,EQ.RATIO= 1.965517  PHI,EQ.RATIO= 3.800000

 UNBURNED GAS

 P1, BAR           1.0000
 T1, K             300.00
 H1, KJ/KG       -1667.60
 M1, (1/n)         20.343
 GAMMA1            1.4007
 SON VEL1,M/SEC     414.4

 BURNED GAS

 P, BAR            11.569
 T, K             2187.59
 RHO, KG/CU M    1.4073 0
 H, KJ/KG         -644.17
 U, KJ/KG        -1466.23
 G, KJ/KG        -24434.9
 S, KJ/(KG)(K)    10.8753

 M, (1/n)          22.126
 (dLV/dLP)t      -1.00020
 (dLV/dLT)p        1.0049
 Cp, KJ/(KG)(K)    1.8415
 GAMMAs            1.2592
 SON VEL,M/SEC     1017.4

 DETONATION PARAMETERS

 P/P1              11.569
 T/T1               7.292
 M/M1              1.0876
 RHO/RHO1          1.7255
 DET MACH NUMBER   4.2363
 DET VEL,M/SEC     1755.6

 MOLE FRACTIONS

 *C              3.094-14
 *CH             1.324-13
 CH2             1.392-11
 CH3             2.4249-9
 CH2OH           2.333-11
 CH3O            2.809-12
 CH4             3.6570-8
 CH3OH           5.076-11
 *CN             2.863-10
 *CO             2.9521-1
 *CO2            3.9110-2
 COOH            6.5426-8
 C2H             4.767-15
 C2H2,acetylene  4.066-11
 C2H2,vinylidene 9.408-15
 CH2CO,ketene    1.544-10
 O(CH)2O         5.901-14
 HO(CO)2OH       6.504-16
 C2H3,vinyl      6.216-15
 CH3CN           1.484-13
 CH3CO,acetyl    5.300-14
 C2H4            2.438-13
 CH3CHO,ethanal  2.629-14
 CH3COOH         3.180-15
 C2H6            1.386-16
 OCCN            4.808-13
 C2N2            2.583-13
 C2O             1.399-12
 C3O2            2.309-13
 *H              6.8630-4
 HCN             2.4129-6
 HCO             5.5849-7
 HCCO            1.295-12
 HNC             1.6773-7
 HNCO            4.7813-7
 HNO             2.0729-9
 HNO2            1.044-11
 HO2             1.284-10
 *H2             1.9715-1
 HCHO,formaldehy 2.7552-7
 HCOOH           1.7903-7
 H2O             1.3678-1
 H2O2            3.310-10
 *N              1.8143-9
 NCO             8.848-10
 *NH             8.4516-9
 NH2             1.1630-7
 NH3             8.8720-6
 NH2OH           1.004-11
 *NO             3.7311-6
 NO2             7.779-12
 *N2             3.3097-1
 NCN             5.807-15
 N2H2            6.750-12
 N2H4            7.260-15
 N2O             4.593-10
 N3              1.227-14
 N3H             7.798-14
 *O              1.5776-7
 *OH             7.2840-5
 *O2             4.6192-8

  * THERMODYNAMIC PROPERTIES FITTED TO 20000.K


                     DETONATION PROPERTIES OF AN IDEAL REACTING GAS
 CASE =                

             REACTANT                       MOLES         ENERGY      TEMP
                                                         KJ/KG-MOL      K
 FUEL        CO                           0.5000000   -110481.283    300.000
 OXIDANT     O2                           1.0000000        54.358    300.000
 OXIDANT     N2                           3.7619000        53.881    300.000
 FUEL        H2                           0.5000000        53.359    300.000

 O/F=    1.17319  %FUEL= 46.015249  R,EQ.RATIO= 1.983051  PHI,EQ.RATIO= 3.900000

 UNBURNED GAS

 P1, BAR           1.0000
 T1, K             300.00
 H1, KJ/KG       -1691.31
 M1, (1/n)         20.258
 GAMMA1            1.4007
 SON VEL1,M/SEC     415.3

 BURNED GAS

 P, BAR            11.448
 T, K             2163.76
 RHO, KG/CU M    1.4001 0
 H, KJ/KG         -675.01
 U, KJ/KG        -1492.64
 G, KJ/KG        -24265.3
 S, KJ/(KG)(K)    10.9025

 M, (1/n)          22.003
 (dLV/dLP)t      -1.00018
 (dLV/dLT)p        1.0044
 Cp, KJ/(KG)(K)    1.8418
 GAMMAs            1.2607
 SON VEL,M/SEC     1015.3

 DETONATION PARAMETERS

 P/P1              11.448
 T/T1               7.213
 M/M1              1.0861
 RHO/RHO1          1.7239
 DET MACH NUMBER   4.2146
 DET VEL,M/SEC     1750.2

 MOLE FRACTIONS

 *C              2.297-14
 *CH             1.068-13
 CH2             1.287-11
 CH3             2.6233-9
 CH2OH           2.292-11
 CH3O            2.690-12
 CH4             4.5544-8
 CH3OH           5.631-11
 *CN             2.489-10
 *CO             2.9874-1
 *CO2            3.8460-2
 COOH            5.8227-8
 C2H             4.440-15
 C2H2,acetylene  4.691-11
 C2H2,vinylidene 9.745-15
 CH2CO,ketene    1.735-10
 O(CH)2O         5.984-14
 HO(CO)2OH       6.071-16
 C2H3,vinyl      6.962-15
 CH3CN           1.881-13
 CH3CO,acetyl    5.855-14
 C2H4            3.198-13
 CH3CHO,ethanal  3.231-14
 CH3COOH         3.744-15
 C2H6            2.009-16
 OCCN            4.465-13
 C2N2            2.697-13
 C2O             1.255-12
 C3O2            2.429-13
 *H              6.0915-4
 HCN             2.5403-6
 HCO             5.1976-7
 HCCO            1.257-12
 HNC             1.7007-7
 HNCO            4.8192-7
 HNO             1.6077-9
 HNO2            7.406-12
 HO2             8.792-11
 *H2             2.0245-1
 HCHO,formaldehy 2.8358-7
 HCOOH           1.7678-7
 H2O             1.3441-1
 H2O2            2.499-10
 *N              1.3517-9
 NCO             7.580-10
 *NH             6.8389-9
 NH2             1.0533-7
 NH3             9.3629-6
 NH2OH           8.663-12
 *NO             2.8910-6
 NO2             5.122-12
 *N2             3.2526-1
 NCN             4.763-15
 N2H2            5.915-12
 N2H4            6.966-15
 N2O             3.513-10
 N3              9.091-15
 N3H             6.356-14
 *O              1.1223-7
 *OH             5.9704-5
 *O2             3.1522-8

  * THERMODYNAMIC PROPERTIES FITTED TO 20000.K


                     DETONATION PROPERTIES OF AN IDEAL REACTING GAS
 CASE =                

             REACTANT                       MOLES         ENERGY      TEMP
                                                         KJ/KG-MOL      K
 FUEL        CO                           0.5000000   -110481.283    300.000
 OXIDANT     O2                           1.0000000        54.358    300.000
 OXIDANT     N2                           3.7619000        53.881    300.000
 FUEL        H2                           0.5000000        53.359    300.000

 O/F=    1.14386  %FUEL= 46.644775  R,EQ.RATIO= 2.000000  PHI,EQ.RATIO= 4.000000

 UNBURNED GAS

 P1, BAR           1.0000
 T1, K             300.00
 H1, KJ/KG       -1714.48
 M1, (1/n)         20.176
 GAMMA1            1.4007
 SON VEL1,M/SEC     416.1

 BURNED GAS

 P, BAR            11.330
 T, K             2140.55
 RHO, KG/CU M    1.3932 0
 H, KJ/KG         -705.22
 U, KJ/KG        -1518.44
 G, KJ/KG        -24098.7
 S, KJ/(KG)(K)    10.9287

 M, (1/n)          21.885
 (dLV/dLP)t      -1.00016
 (dLV/dLT)p        1.0039
 Cp, KJ/(KG)(K)    1.8424
 GAMMAs            1.2621
 SON VEL,M/SEC     1013.1

 DETONATION PARAMETERS

 P/P1              11.330
 T/T1               7.135
 M/M1              1.0847
 RHO/RHO1          1.7224
 DET MACH NUMBER   4.1933
 DET VEL,M/SEC     1745.0

 MOLE FRACTIONS

 *C              1.704-14
 *CH             8.602-14
 CH2             1.186-11
 CH3             2.8266-9
 CH2OH           2.247-11
 CH3O            2.571-12
 CH4             5.6431-8
 CH3OH           6.225-11
 *CN             2.162-10
 *CO             3.0212-1
 *CO2            3.7857-2
 COOH            5.1862-8
 C2H             4.120-15
 C2H2,acetylene  5.382-11
 C2H2,vinylidene 1.004-14
 CH2CO,ketene    1.941-10
 O(CH)2O         6.054-14
 HO(CO)2OH       5.673-16
 C2H3,vinyl      7.752-15
 CH3CN           2.369-13
 CH3CO,acetyl    6.438-14
 C2H4            4.163-13
 CH3CHO,ethanal  3.949-14
 CH3COOH         4.390-15
 C2H5            1.005-16
 C2H6            2.888-16
 OCCN            4.140-13
 C2N2            2.807-13
 C2O             1.123-12
 C3O2            2.547-13
 *H              5.4062-4
 HCN             2.6677-6
 HCO             4.8332-7
 HCCO            1.216-12
 HNC             1.7204-7
 HNCO            4.8527-7
 HNO             1.2496-9
 HNO2            5.276-12
 HO2             6.041-11
 *H2             2.0759-1
 HCHO,formaldehy 2.9135-7
 HCOOH           1.7453-7
 H2O             1.3209-1
 H2O2            1.893-10
 *N              1.0085-9
 NCO             6.497-10
 *NH             5.5365-9
 NH2             9.5330-8
 NH3             9.8614-6
 NH2OH           7.481-12
 *NO             2.2458-6
 NO2             3.388-12
 *N2             3.1974-1
 NCN             3.904-15
 N2H2            5.183-12
 N2H4            6.672-15
 N2O             2.694-10
 N3              6.747-15
 N3H             5.184-14
 *O              8.0065-8
 *OH             4.9014-5
 *O2             2.1606-8

  * THERMODYNAMIC PROPERTIES FITTED TO 20000.K



