
 *******************************************************************************

         NASA-GLENN CHEMICAL EQUILIBRIUM PROGRAM CEA2, MAY 21, 2004
                   BY  BONNIE MCBRIDE AND SANFORD GORDON
      REFS: NASA RP-1311, PART I, 1994 AND NASA RP-1311, PART II, 1996

 *******************************************************************************



 problem    phi,eq.ratio=2.1,2.2,2.3,2.4,2.5,2.6,2.7,2.8,2.9,3,3.1,3.2,3.3,3.4,3.
 5,3.6,
       uv   rho,kg/m**3=1.1523,  t,k=3800
 react
   fuel=C2H4 moles=1 t,k=300
   oxid=O2 moles=3 t,k=300
   oxid=N2 moles=11.2857 t,k=300
 output
      trace=1e-16 siunits short
 end




         THERMODYNAMIC EQUILIBRIUM COMBUSTION PROPERTIES AT ASSIGNED

                                     VOLUME

 CASE =                

             REACTANT                       MOLES         ENERGY      TEMP
                                                         KJ/KG-MOL      K
 FUEL        C2H4                         1.0000000     50085.152    300.000
 OXIDANT     O2                           3.0000000     -2439.995    300.000
 OXIDANT     N2                          11.2857000     -2440.472    300.000

 O/F=    6.99602  %FUEL= 12.506215  R,EQ.RATIO= 2.100000  PHI,EQ.RATIO= 2.100000

 THERMODYNAMIC PROPERTIES

 P, BAR            9.1950
 T, K             2295.08
 RHO, KG/CU M    1.1523 0
 H, KJ/KG          947.24
 U, KJ/KG          149.27
 G, KJ/KG        -22369.4
 S, KJ/(KG)(K)    10.1594

 M, (1/n)          23.914
 (dLV/dLP)t      -1.00033
 (dLV/dLT)p        1.0079
 Cp, KJ/(KG)(K)    1.6622
 GAMMAs            1.2693
 SON VEL,M/SEC     1006.4

 MOLE FRACTIONS

 *C              1.222-13
 *CH             2.848-13
 CH2             1.302-11
 CH3             9.017-10
 CH2OH           8.169-12
 CH3O            1.099-12
 CH4             5.8111-9
 CH3OH           8.244-12
 *CN             6.377-10
 *CO             1.9496-1
 *CO2            1.8258-2
 COOH            3.6244-8
 C2H             4.700-15
 C2H2,acetylene  1.253-11
 C2H2,vinylidene 4.579-15
 CH2CO,ketene    3.332-11
 O(CH)2O         1.232-14
 C2H3,vinyl      1.685-15
 CH3CN           2.633-14
 CH3CO,acetyl    9.543-15
 C2H4            2.626-14
 CH3CHO,ethanal  2.334-15
 CH3COOH         2.123-16
 OCCN            4.275-13
 C2N2            2.469-13
 C2O             1.307-12
 C3O2            5.783-14
 *H              1.1642-3
 HCN             1.8490-6
 HCO             4.0881-7
 HCCO            6.710-13
 HNC             1.5079-7
 HNCO            2.7577-7
 HNO             4.3180-9
 HNO2            1.983-11
 HO2             2.571-10
 *H2             1.3957-1
 HCHO,formaldehy 1.0204-7
 HCOOH           4.9516-8
 H2O             7.3004-2
 H2O2            3.388-10
 *N              9.2303-9
 NCO             1.3129-9
 *NH             2.3474-8
 NH2             1.5529-7
 NH3             4.7991-6
 NH2OH           7.991-12
 *NO             1.0041-5
 NO2             2.618-11
 *N2             5.7292-1
 NCN             1.834-14
 N2H2            1.149-11
 N2H4            5.057-15
 N2O             1.4463-9
 N3              7.818-14
 N3H             2.570-13
 *O              5.5259-7
 *OH             1.0833-4
 *O2             1.2070-7

  * THERMODYNAMIC PROPERTIES FITTED TO 20000.K









         THERMODYNAMIC EQUILIBRIUM COMBUSTION PROPERTIES AT ASSIGNED

                                     VOLUME

 CASE =                

             REACTANT                       MOLES         ENERGY      TEMP
                                                         KJ/KG-MOL      K
 FUEL        C2H4                         1.0000000     50085.152    300.000
 OXIDANT     O2                           3.0000000     -2439.995    300.000
 OXIDANT     N2                          11.2857000     -2440.472    300.000

 O/F=    6.67802  %FUEL= 13.024186  R,EQ.RATIO= 2.200000  PHI,EQ.RATIO= 2.200000

 THERMODYNAMIC PROPERTIES

 P, BAR            9.0874
 T, K             2236.65
 RHO, KG/CU M    1.1523 0
 H, KJ/KG          947.59
 U, KJ/KG          158.96
 G, KJ/KG        -21901.2
 S, KJ/(KG)(K)    10.2156

 M, (1/n)          23.581
 (dLV/dLP)t      -1.00025
 (dLV/dLT)p        1.0060
 Cp, KJ/(KG)(K)    1.6560
 GAMMAs            1.2743
 SON VEL,M/SEC     1002.5

 MOLE FRACTIONS

 *C              7.230-14
 *CH             2.089-13
 CH2             1.335-11
 CH3             1.3555-9
 CH2OH           8.635-12
 CH3O            1.095-12
 CH4             1.2318-8
 CH3OH           1.177-11
 *CN             5.482-10
 *CO             2.0336-1
 *CO2            1.5595-2
 COOH            2.5374-8
 C2H             5.608-15
 C2H2,acetylene  2.491-11
 C2H2,vinylidene 7.140-15
 CH2CO,ketene    5.452-11
 O(CH)2O         1.397-14
 C2H3,vinyl      3.219-15
 CH3CN           6.750-14
 CH3CO,acetyl    1.543-14
 C2H4            7.356-14
 CH3CHO,ethanal  4.934-15
 CH3COOH         3.556-16
 OCCN            4.381-13
 C2N2            3.829-13
 C2O             1.218-12
 C3O2            7.936-14
 *H              9.0203-4
 HCN             2.5159-6
 HCO             3.6240-7
 HCCO            7.678-13
 HNC             1.8848-7
 HNCO            2.9725-7
 HNO             2.1884-9
 HNO2            7.189-12
 HO2             8.463-11
 *H2             1.5450-1
 HCHO,formaldehy 1.1663-7
 HCOOH           4.5010-8
 H2O             6.3962-2
 H2O2            1.430-10
 *N              4.7604-9
 NCO             9.539-10
 *NH             1.4994-8
 NH2             1.3143-7
 NH3             5.8946-6
 NH2OH           5.442-12
 *NO             4.9488-6
 NO2             7.802-12
 *N2             5.6160-1
 NCN             1.403-14
 N2H2            9.153-12
 N2H4            5.221-15
 N2O             7.024-10
 N3              4.106-14
 N3H             1.720-13
 *O              2.2095-7
 *OH             6.1317-5
 *O2             3.8413-8

  * THERMODYNAMIC PROPERTIES FITTED TO 20000.K









         THERMODYNAMIC EQUILIBRIUM COMBUSTION PROPERTIES AT ASSIGNED

                                     VOLUME

 CASE =                

             REACTANT                       MOLES         ENERGY      TEMP
                                                         KJ/KG-MOL      K
 FUEL        C2H4                         1.0000000     50085.152    300.000
 OXIDANT     O2                           3.0000000     -2439.995    300.000
 OXIDANT     N2                          11.2857000     -2440.472    300.000

 O/F=    6.38767  %FUEL= 13.536060  R,EQ.RATIO= 2.300000  PHI,EQ.RATIO= 2.300000

 THERMODYNAMIC PROPERTIES

 P, BAR            8.9755
 T, K             2179.07
 RHO, KG/CU M    1.1523 0
 H, KJ/KG          947.45
 U, KJ/KG          168.53
 G, KJ/KG        -21429.5
 S, KJ/(KG)(K)    10.2690

 M, (1/n)          23.260
 (dLV/dLP)t      -1.00019
 (dLV/dLT)p        1.0046
 Cp, KJ/(KG)(K)    1.6522
 GAMMAs            1.2790
 SON VEL,M/SEC      998.1

 MOLE FRACTIONS

 *C              4.158-14
 *CH             1.490-13
 CH2             1.338-11
 CH3             2.0035-9
 CH2OH           8.885-12
 CH3O            1.060-12
 CH4             2.5831-8
 CH3OH           1.641-11
 *CN             4.647-10
 *CO             2.1125-1
 *CO2            1.3215-2
 COOH            1.7353-8
 C2H             6.569-15
 C2H2,acetylene  4.917-11
 C2H2,vinylidene 1.095-14
 CH2CO,ketene    8.822-11
 O(CH)2O         1.551-14
 C2H3,vinyl      6.048-15
 CH3CN           1.723-13
 CH3CO,acetyl    2.448-14
 C2H4            2.041-13
 CH3CHO,ethanal  1.026-14
 CH3COOH         5.829-16
 OCCN            4.433-13
 C2N2            5.943-13
 C2O             1.116-12
 C3O2            1.081-13
 *H              6.8702-4
 HCN             3.4088-6
 HCO             3.1550-7
 HCCO            8.637-13
 HNC             2.3381-7
 HNCO            3.1726-7
 HNO             1.0774-9
 HNO2            2.507-12
 HO2             2.668-11
 *H2             1.6903-1
 HCHO,formaldehy 1.3118-7
 HCOOH           4.0066-8
 H2O             5.5069-2
 H2O2            5.790-11
 *N              2.3964-9
 NCO             6.815-10
 *NH             9.3488-9
 NH2             1.0889-7
 NH3             7.1321-6
 NH2OH           3.584-12
 *NO             2.3838-6
 NO2             2.238-12
 *N2             5.5071-1
 NCN             1.054-14
 N2H2            7.133-12
 N2H4            5.240-15
 N2O             3.335-10
 N3              2.109-14
 N3H             1.128-13
 *O              8.5635-8
 *OH             3.3813-5
 *O2             1.1785-8

  * THERMODYNAMIC PROPERTIES FITTED TO 20000.K









         THERMODYNAMIC EQUILIBRIUM COMBUSTION PROPERTIES AT ASSIGNED

                                     VOLUME

 CASE =                

             REACTANT                       MOLES         ENERGY      TEMP
                                                         KJ/KG-MOL      K
 FUEL        C2H4                         1.0000000     50085.152    300.000
 OXIDANT     O2                           3.0000000     -2439.995    300.000
 OXIDANT     N2                          11.2857000     -2440.472    300.000

 O/F=    6.12152  %FUEL= 14.041944  R,EQ.RATIO= 2.400000  PHI,EQ.RATIO= 2.400000

 THERMODYNAMIC PROPERTIES

 P, BAR            8.8596
 T, K             2122.37
 RHO, KG/CU M    1.1523 0
 H, KJ/KG          946.86
 U, KJ/KG          177.99
 G, KJ/KG        -20955.0
 S, KJ/(KG)(K)    10.3196

 M, (1/n)          22.951
 (dLV/dLP)t      -1.00015
 (dLV/dLT)p        1.0035
 Cp, KJ/(KG)(K)    1.6500
 GAMMAs            1.2836
 SON VEL,M/SEC      993.4

 MOLE FRACTIONS

 *C              2.339-14
 *CH             1.041-13
 CH2             1.320-11
 CH3             2.9417-9
 CH2OH           8.929-12
 CH3O            1.001-12
 CH4             5.4221-8
 CH3OH           2.249-11
 *CN             3.910-10
 *CO             2.1871-1
 *CO2            1.1046-2
 COOH            1.1535-8
 C2H             7.667-15
 C2H2,acetylene  9.798-11
 C2H2,vinylidene 1.678-14
 CH2CO,ketene    1.426-10
 O(CH)2O         1.691-14
 C2H3,vinyl      1.138-14
 CH3CN           4.459-13
 CH3CO,acetyl    3.853-14
 C2H4            5.716-13
 CH3CHO,ethanal  2.123-14
 CH3COOH         9.405-16
 C2H5            1.112-16
 C2H6            2.924-16
 OCCN            4.463-13
 C2N2            9.366-13
 C2O             1.013-12
 C3O2            1.475-13
 *H              5.1464-4
 HCN             4.6370-6
 HCO             2.7014-7
 HCCO            9.637-13
 HNC             2.9022-7
 HNCO            3.3591-7
 HNO             5.121-10
 HNO2            8.305-13
 HO2             7.951-12
 *H2             1.8310-1
 HCHO,formaldehy 1.4561-7
 HCOOH           3.4799-8
 H2O             4.6381-2
 H2O2            2.222-11
 *N              1.1763-9
 NCO             4.789-10
 *NH             5.6908-9
 NH2             8.8443-8
 NH3             8.5266-6
 NH2OH           2.273-12
 *NO             1.1142-6
 NO2             6.088-13
 *N2             5.4021-1
 NCN             7.836-15
 N2H2            5.445-12
 N2H4            5.130-15
 N2O             1.538-10
 N3              1.058-14
 N3H             7.240-14
 *O              3.1932-8
 *OH             1.8055-5
 *O2             3.4371-9

  * THERMODYNAMIC PROPERTIES FITTED TO 20000.K









         THERMODYNAMIC EQUILIBRIUM COMBUSTION PROPERTIES AT ASSIGNED

                                     VOLUME

 CASE =                

             REACTANT                       MOLES         ENERGY      TEMP
                                                         KJ/KG-MOL      K
 FUEL        C2H4                         1.0000000     50085.152    300.000
 OXIDANT     O2                           3.0000000     -2439.995    300.000
 OXIDANT     N2                          11.2857000     -2440.472    300.000

 O/F=    5.87666  %FUEL= 14.541943  R,EQ.RATIO= 2.500000  PHI,EQ.RATIO= 2.500000

 THERMODYNAMIC PROPERTIES

 P, BAR            8.7399
 T, K             2066.53
 RHO, KG/CU M    1.1523 0
 H, KJ/KG          945.82
 U, KJ/KG          187.34
 G, KJ/KG        -20478.5
 S, KJ/(KG)(K)    10.3673

 M, (1/n)          22.653
 (dLV/dLP)t      -1.00012
 (dLV/dLT)p        1.0026
 Cp, KJ/(KG)(K)    1.6492
 GAMMAs            1.2880
 SON VEL,M/SEC      988.4

 MOLE FRACTIONS

 *C              1.296-14
 *CH             7.183-14
 CH2             1.297-11
 CH3             4.3414-9
 CH2OH           8.790-12
 CH3O            9.246-13
 CH4             1.1543-7
 CH3OH           3.037-11
 *CN             3.295-10
 *CO             2.2582-1
 *CO2            9.0341-3
 COOH            7.3940-9
 C2H             9.087-15
 C2H2,acetylene  2.013-10
 C2H2,vinylidene 2.624-14
 CH2CO,ketene    2.331-10
 O(CH)2O         1.816-14
 C2H3,vinyl      2.188-14
 CH3CN           1.195-12
 CH3CO,acetyl    6.093-14
 C2H4            1.653-12
 CH3CHO,ethanal  4.437-14
 CH3COOH         1.501-15
 C2H5            3.002-16
 C2H6            1.110-15
 OCCN            4.513-13
 C2N2            1.527-12
 C2O             9.202-13
 C3O2            2.038-13
 *H              3.7924-4
 HCN             6.3984-6
 HCO             2.2772-7
 HCCO            1.078-12
 HNC             3.6410-7
 HNCO            3.5330-7
 HNO             2.329-10
 HNO2            2.566-13
 HO2             2.199-12
 *H2             1.9671-1
 HCHO,formaldehy 1.5983-7
 HCOOH           2.9296-8
 H2O             3.7935-2
 H2O2            7.950-12
 *N              5.623-10
 NCO             3.310-10
 *NH             3.3816-9
 NH2             7.0505-8
 NH3             1.0097-5
 NH2OH           1.380-12
 *NO             5.0040-7
 NO2             1.542-13
 *N2             5.3010-1
 NCN             5.810-15
 N2H2            4.077-12
 N2H4            4.914-15
 N2O             6.814-11
 N3              5.184-15
 N3H             4.554-14
 *O              1.1339-8
 *OH             9.2525-6
 *O2             9.349-10

  * THERMODYNAMIC PROPERTIES FITTED TO 20000.K









         THERMODYNAMIC EQUILIBRIUM COMBUSTION PROPERTIES AT ASSIGNED

                                     VOLUME

 CASE =                

             REACTANT                       MOLES         ENERGY      TEMP
                                                         KJ/KG-MOL      K
 FUEL        C2H4                         1.0000000     50085.152    300.000
 OXIDANT     O2                           3.0000000     -2439.995    300.000
 OXIDANT     N2                          11.2857000     -2440.472    300.000

 O/F=    5.65063  %FUEL= 15.036158  R,EQ.RATIO= 2.600000  PHI,EQ.RATIO= 2.600000

 THERMODYNAMIC PROPERTIES

 P, BAR            8.6167
 T, K             2011.55
 RHO, KG/CU M    1.1523 0
 H, KJ/KG          944.36
 U, KJ/KG          196.58
 G, KJ/KG        -20000.4
 S, KJ/(KG)(K)    10.4122

 M, (1/n)          22.366
 (dLV/dLP)t      -1.00009
 (dLV/dLT)p        1.0020
 Cp, KJ/(KG)(K)    1.6494
 GAMMAs            1.2923
 SON VEL,M/SEC      983.0

 MOLE FRACTIONS

 *C              7.168-15
 *CH             4.965-14
 CH2             1.287-11
 CH3             6.5439-9
 CH2OH           8.492-12
 CH3O            8.364-13
 CH4             2.5356-7
 CH3OH           4.057-11
 *CN             2.817-10
 *CO             2.3262-1
 *CO2            7.1352-3
 COOH            4.5117-9
 C2H             1.125-14
 C2H2,acetylene  4.391-10
 C2H2,vinylidene 4.308-14
 CH2CO,ketene    3.915-10
 O(CH)2O         1.925-14
 C2H3,vinyl      4.434-14
 CH3CN           3.424-12
 CH3CO,acetyl    9.842-14
 C2H4            5.095-12
 CH3CHO,ethanal  9.525-14
 CH3COOH         2.380-15
 C2H5            8.577-16
 C2H6            4.497-15
 OCCN            4.649-13
 C2N2            2.649-12
 C2O             8.474-13
 C3H3,2-propynl  1.525-16
 C3O2            2.893-13
 *H              2.7491-4
 HCN             9.0892-6
 HCO             1.8910-7
 HCCO            1.226-12
 HNC             4.6848-7
 HNCO            3.6954-7
 HNO             9.989-11
 HNO2            7.189-14
 HO2             5.489-13
 *H2             2.0984-1
 HCHO,formaldehy 1.7380-7
 HCOOH           2.3623-8
 H2O             2.9756-2
 H2O2            2.579-12
 *N              2.615-10
 NCO             2.249-10
 *NH             1.9607-9
 NH2             5.5202-8
 NH3             1.1868-5
 NH2OH           7.912-13
 *NO             2.1281-7
 NO2             3.532-14
 *N2             5.2035-1
 NCN             4.353-15
 N2H2            2.995-12
 N2H4            4.616-15
 N2O             2.861-11
 N3              2.475-15
 N3H             2.806-14
 *O              3.7771-9
 *OH             4.4880-6
 *O2             2.305-10

  * THERMODYNAMIC PROPERTIES FITTED TO 20000.K









         THERMODYNAMIC EQUILIBRIUM COMBUSTION PROPERTIES AT ASSIGNED

                                     VOLUME

 CASE =                

             REACTANT                       MOLES         ENERGY      TEMP
                                                         KJ/KG-MOL      K
 FUEL        C2H4                         1.0000000     50085.152    300.000
 OXIDANT     O2                           3.0000000     -2439.995    300.000
 OXIDANT     N2                          11.2857000     -2440.472    300.000

 O/F=    5.44135  %FUEL= 15.524691  R,EQ.RATIO= 2.700000  PHI,EQ.RATIO= 2.700000

 THERMODYNAMIC PROPERTIES

 P, BAR            8.4899
 T, K             1957.42
 RHO, KG/CU M    1.1523 0
 H, KJ/KG          942.50
 U, KJ/KG          205.72
 G, KJ/KG        -19520.9
 S, KJ/(KG)(K)    10.4543

 M, (1/n)          22.089
 (dLV/dLP)t      -1.00008
 (dLV/dLT)p        1.0015
 Cp, KJ/(KG)(K)    1.6503
 GAMMAs            1.2965
 SON VEL,M/SEC      977.3

 MOLE FRACTIONS

 *C              4.048-15
 *CH             3.520-14
 CH2             1.324-11
 CH3             1.0343-8
 CH2OH           8.065-12
 CH3O            7.424-13
 CH4             5.9085-7
 CH3OH           5.375-11
 *CN             2.502-10
 *CO             2.3916-1
 *CO2            5.3129-3
 COOH            2.5581-9
 C2H             1.528-14
 C2H2,acetylene  1.0701-9
 C2H2,vinylidene 7.811-14
 CH2CO,ketene    6.937-10
 O(CH)2O         2.018-14
 C2H3,vinyl      9.967-14
 CH3CN           1.104-11
 CH3CO,acetyl    1.668-13
 C2H4            1.764-11
 CH3CHO,ethanal  2.161-13
 CH3COOH         3.761-15
 C2H5            2.732-15
 C2H6            2.051-14
 OCCN            5.000-13
 C2N2            5.139-12
 C2O             8.108-13
 C3H3,2-propynl  5.863-16
 C3H4,allene     1.670-16
 C3H4,propyne    4.159-16
 C3O2            4.331-13
 *H              1.9599-4
 HCN             1.3634-5
 HCO             1.5474-7
 HCCO            1.455-12
 HNC             6.3396-7
 HNCO            3.8473-7
 HNO             3.942-11
 HNO2            1.738-14
 HO2             1.176-13
 *H2             2.2249-1
 HCHO,formaldehy 1.8749-7
 HCOOH           1.7829-8
 H2O             2.1865-2
 H2O2            7.225-13
 *N              1.180-10
 NCO             1.502-10
 *NH             1.1085-9
 NH2             4.2463-8
 NH3             1.3868-5
 NH2OH           4.187-13
 *NO             8.3532-8
 NO2             6.953-15
 *N2             5.1095-1
 NCN             3.375-15
 N2H2            2.160-12
 N2H4            4.260-15
 N2O             1.110-11
 N3              1.150-15
 N3H             1.692-14
 *O              1.1497-9
 *OH             2.0097-6
 *O2             4.893-11

  * THERMODYNAMIC PROPERTIES FITTED TO 20000.K









         THERMODYNAMIC EQUILIBRIUM COMBUSTION PROPERTIES AT ASSIGNED

                                     VOLUME

 CASE =                

             REACTANT                       MOLES         ENERGY      TEMP
                                                         KJ/KG-MOL      K
 FUEL        C2H4                         1.0000000     50085.152    300.000
 OXIDANT     O2                           3.0000000     -2439.995    300.000
 OXIDANT     N2                          11.2857000     -2440.472    300.000

 O/F=    5.24702  %FUEL= 16.007637  R,EQ.RATIO= 2.800000  PHI,EQ.RATIO= 2.800000

 THERMODYNAMIC PROPERTIES

 P, BAR            8.3599
 T, K             1904.12
 RHO, KG/CU M    1.1523 0
 H, KJ/KG          940.24
 U, KJ/KG          214.75
 G, KJ/KG        -19039.9
 S, KJ/(KG)(K)    10.4931

 M, (1/n)          21.822
 (dLV/dLP)t      -1.00008
 (dLV/dLT)p        1.0011
 Cp, KJ/(KG)(K)    1.6518
 GAMMAs            1.3006
 SON VEL,M/SEC      971.4

 MOLE FRACTIONS

 *C              2.458-15
 *CH             2.697-14
 CH2             1.487-11
 CH3             1.8113-8
 CH2OH           7.537-12
 CH3O            6.471-13
 CH4             1.5449-6
 CH3OH           7.079-11
 *CN             2.435-10
 *CO             2.4548-1
 *CO2            3.5366-3
 COOH            1.2776-9
 C2H             2.534-14
 C2H2,acetylene  3.2484-9
 C2H2,vinylidene 1.742-13
 CH2CO,ketene    1.3702-9
 O(CH)2O         2.094-14
 C2H3,vinyl      2.770-13
 CH3CN           4.471-11
 CH3CO,acetyl    3.136-13
 C2H4            7.657-11
 CH3CHO,ethanal  5.480-13
 CH3COOH         5.941-15
 C2H5            1.083-14
 C2H6            1.178-13
 OCCN            5.924-13
 C2N2            1.241-11
 C2O             8.500-13
 C3H3,2-propynl  3.135-15
 C3H4,allene     1.166-15
 C3H4,propyne    2.939-15
 C3O2            7.219-13
 *H              1.3735-4
 HCN             2.2797-5
 HCO             1.2480-7
 HCCO            1.900-12
 HNC             9.5234-7
 HNCO            3.9897-7
 HNO             1.355-11
 HNO2            3.253-15
 HO2             1.939-14
 *H2             2.3466-1
 HCHO,formaldehy 2.0086-7
 HCOOH           1.1952-8
 H2O             1.4276-2
 H2O2            1.569-13
 *N              5.165-11
 NCO             9.856-11
 *NH             6.105-10
 NH2             3.2094-8
 NH3             1.6133-5
 NH2OH           1.939-13
 *NO             2.8646-8
 NO2             1.055-15
 *N2             5.0187-1
 NCN             2.853-15
 N2H2            1.530-12
 N2H4            3.865-15
 N2O             3.762-12
 N3              5.191-16
 N3H             9.983-15
 *O              3.025-10
 *OH             7.8690-7
 *O2             8.026-12

  * THERMODYNAMIC PROPERTIES FITTED TO 20000.K









         THERMODYNAMIC EQUILIBRIUM COMBUSTION PROPERTIES AT ASSIGNED

                                     VOLUME

 CASE =                

             REACTANT                       MOLES         ENERGY      TEMP
                                                         KJ/KG-MOL      K
 FUEL        C2H4                         1.0000000     50085.152    300.000
 OXIDANT     O2                           3.0000000     -2439.995    300.000
 OXIDANT     N2                          11.2857000     -2440.472    300.000

 O/F=    5.06609  %FUEL= 16.485093  R,EQ.RATIO= 2.900000  PHI,EQ.RATIO= 2.900000

 THERMODYNAMIC PROPERTIES

 P, BAR            8.2266
 T, K             1851.63
 RHO, KG/CU M    1.1523 0
 H, KJ/KG          937.60
 U, KJ/KG          223.68
 G, KJ/KG        -18556.9
 S, KJ/(KG)(K)    10.5283

 M, (1/n)          21.564
 (dLV/dLP)t      -1.00012
 (dLV/dLT)p        1.0009
 Cp, KJ/(KG)(K)    1.6537
 GAMMAs            1.3046
 SON VEL,M/SEC      965.1

 MOLE FRACTIONS

 *C              1.892-15
 *CH             2.636-14
 CH2             2.157-11
 CH3             4.1561-8
 CH2OH           6.937-12
 CH3O            5.544-13
 CH4             5.3672-6
 CH3OH           9.283-11
 *CN             3.064-10
 *CO             2.5160-1
 *CO2            1.7820-3
 COOH            4.757-10
 C2H             7.161-14
 C2H2,acetylene  1.7162-8
 C2H2,vinylidene 6.674-13
 CH2CO,ketene    3.5694-9
 O(CH)2O         2.154-14
 C2H3,vinyl      1.330-12
 CH3CN           3.180-10
 CH3CO,acetyl    7.736-13
 C2H4            5.832-10
 CH3CHO,ethanal  1.840-12
 CH3COOH         9.404-15
 C2H5            7.485-14
 C2H6            1.192-12
 C2H5OH          1.394-16
 OCCN            9.129-13
 C2N2            5.214-11
 C2O             1.153-12
 C3H3,2-propynl  3.851-14
 C3H4,allene     1.884-14
 C3H4,propyne    4.812-14
 C3H5,allyl      2.738-16
 C3H6,propylene  1.300-15
 C3O2            1.584-12
 C4H2,butadiyne  4.715-16
 *H              9.4579-5
 HCN             5.0234-5
 HCO             9.9196-8
 HCCO            3.230-12
 HNC             1.8768-6
 HNCO            4.1232-7
 HNO             3.431-12
 HNO2            3.374-16
 HO2             1.760-15
 *H2             2.4631-1
 HCHO,formaldehy 2.1387-7
 HCOOH           6.0290-9
 H2O             7.0147-3
 H2O2            1.891-14
 *N              2.187-11
 NCO             6.346-11
 *NH             3.272-10
 NH2             2.3831-8
 NH3             1.8702-5
 NH2OH           6.649-14
 *NO             7.2552-9
 *N2             4.9311-1
 NCN             3.105-15
 N2H2            1.063-12
 N2H4            3.452-15
 N2O             9.424-13
 N3              2.273-16
 N3H             5.757-15
 *O              5.815-11
 *OH             2.2786-7
 *O2             7.271-13

  * THERMODYNAMIC PROPERTIES FITTED TO 20000.K









         THERMODYNAMIC EQUILIBRIUM COMBUSTION PROPERTIES AT ASSIGNED

                                     VOLUME

 CASE =                

             REACTANT                       MOLES         ENERGY      TEMP
                                                         KJ/KG-MOL      K
 FUEL        C2H4                         1.0000000     50085.152    300.000
 OXIDANT     O2                           3.0000000     -2439.995    300.000
 OXIDANT     N2                          11.2857000     -2440.472    300.000

 O/F=    4.89722  %FUEL= 16.957151  R,EQ.RATIO= 3.000000  PHI,EQ.RATIO= 3.000000

 THERMODYNAMIC PROPERTIES

 P, BAR            8.0865
 T, K             1800.49
 RHO, KG/CU M    1.1523 0
 H, KJ/KG          934.27
 U, KJ/KG          232.50
 G, KJ/KG        -18074.3
 S, KJ/(KG)(K)    10.5575

 M, (1/n)          21.332
 (dLV/dLP)t      -1.00062
 (dLV/dLT)p        1.0030
 Cp, KJ/(KG)(K)    1.6641
 GAMMAs            1.3072
 SON VEL,M/SEC      957.8

 MOLE FRACTIONS

 *C              8.002-15
 *CH             1.420-13
 CH2             1.736-10
 CH3             5.3437-7
 CH2OH           6.255-12
 CH3O            4.646-13
 CH4             1.0542-4
 CH3OH           1.201-10
 *CN             2.1506-9
 *CO             2.5697-1
 *CO2            1.5750-4
 COOH            3.064-11
 C2H             6.378-12
 C2H2,acetylene  2.9002-6
 C2H2,vinylidene 8.093-11
 CH2CO,ketene    5.2332-8
 O(CH)2O         2.179-14
 C2H3,vinyl      2.028-10
 CH3CN           7.2717-8
 CH3CO,acetyl    1.068-11
 C2H4            1.4237-7
 C2H4O,ethylen-o 1.225-15
 CH3CHO,ethanal  3.472-11
 CH3COOH         1.472-14
 C2H5            1.645-11
 C2H6            3.868-10
 C2H5OH          3.074-15
 CNC             1.563-15
 OCCN            7.865-12
 C2N2            7.0247-9
 C2O             8.705-12
 *C3             2.324-16
 C3H3,1-propynl  7.801-15
 C3H3,2-propynl  8.557-11
 C3H4,allene     5.532-11
 C3H4,propyne    1.431-10
 C3H4,cyclo-     1.359-13
 C3H5,allyl      8.533-13
 C3H6,propylene  5.430-12
 C3H6,cyclo-     1.525-14
 C3H6O,acetone   5.727-16
 C3H6O,propanal  2.940-16
 C3H7,n-propyl   1.554-16
 C3H7,i-propyl   1.374-16
 C3H8            3.737-15
 CNCOCN          1.177-16
 C3O2            1.955-11
 C4H2,butadiyne  1.286-11
 C4H6,butadiene  2.205-14
 C4H6,1butyne    1.500-15
 C4H6,2butyne    1.368-15
 C4N2            2.736-14
 C5H6,1,3cyclo-  1.204-16
 C6H6            1.996-16
 *H              6.4147-5
 HCN             6.2549-4
 HCO             7.7603-8
 HCCN            2.448-16
 HCCO            3.063-11
 HNC             2.0828-5
 HNCO            4.2306-7
 HNO             1.493-13
 *H2             2.5669-1
 HCHO,formaldehy 2.2517-7
 HCOOH           5.289-10
 H2O             6.0104-4
 *N              9.028-12
 NCO             4.018-11
 *NH             1.713-10
 NH2             1.7387-8
 NH3             2.1498-5
 NH2OH           3.920-15
 *NO             3.171-10
 *N2             4.8474-1
 NCN             1.877-14
 N2H2            7.252-13
 N2H4            3.022-15
 N2O             4.076-14
 N3H             3.255-15
 *O              1.912-12
 *OH             1.1374-8
 *O2             1.980-15

  * THERMODYNAMIC PROPERTIES FITTED TO 20000.K









         THERMODYNAMIC EQUILIBRIUM COMBUSTION PROPERTIES AT ASSIGNED

                                     VOLUME

 CASE =                

             REACTANT                       MOLES         ENERGY      TEMP
                                                         KJ/KG-MOL      K
 FUEL        C2H4                         1.0000000     50085.152    300.000
 OXIDANT     O2                           3.0000000     -2439.995    300.000
 OXIDANT     N2                          11.2857000     -2440.472    300.000

 O/F=    4.73924  %FUEL= 17.423903  R,EQ.RATIO= 3.100000  PHI,EQ.RATIO= 3.100000

 THERMODYNAMIC PROPERTIES

 P, BAR            8.0150
 T, K             1779.07
 RHO, KG/CU M    1.1523 0
 H, KJ/KG          936.80
 U, KJ/KG          241.23
 G, KJ/KG        -17879.1
 S, KJ/(KG)(K)    10.5763

 M, (1/n)          21.266
 MW, MOL WT        21.142
 (dLV/dLP)t      -1.00071
 (dLV/dLT)p        1.0053
 Cp, KJ/(KG)(K)    1.7548
 GAMMAs            1.2894
 SON VEL,M/SEC      947.0

 MOLE FRACTIONS

 *C              1.783-14
 *CH             3.514-13
 CH2             5.121-10
 CH3             1.9337-6
 CH2OH           5.858-12
 CH3O            4.215-13
 CH4             4.5911-4
 CH3OH           1.316-10
 *CN             5.9605-9
 *CO             2.5390-1
 *CO2            4.4143-5
 COOH            7.483-12
 *C2             6.010-16
 C2H             6.401-11
 C2H2,acetylene  3.8487-5
 C2H2,vinylidene 9.293-10
 CH2CO,ketene    1.9719-7
 O(CH)2O         2.111-14
 C2H3,vinyl      2.5732-9
 CH3CN           1.0989-6
 CH3CO,acetyl    3.920-11
 C2H4            2.2190-6
 C2H4O,ethylen-o 4.698-15
 CH3CHO,ethanal  1.461-10
 CH3COOH         1.725-14
 C2H5            2.450-10
 C2H6            6.8289-9
 C2H5OH          1.385-14
 CNC             1.400-14
 OCCN            2.344-11
 C2N2            8.4062-8
 C2O             2.455-11
 *C3             7.435-15
 C3H3,1-propynl  3.478-13
 C3H3,2-propynl  4.1669-9
 C3H4,allene     3.0424-9
 C3H4,propyne    7.9179-9
 C3H4,cyclo-     6.979-12
 C3H5,allyl      4.818-11
 C3H6,propylene  3.484-10
 C3H6,cyclo-     9.507-13
 C3H6O,acetone   1.009-14
 C3H6O,propanal  5.022-15
 C3H7,n-propyl   9.407-15
 C3H7,i-propyl   8.399-15
 C3H8            2.686-13
 CNCOCN          1.326-15
 C3O2            6.720-11
 C4H2,butadiyne  2.2288-9
 C4H4,1,3-cyclo- 6.269-15
 C4H6,butadiene  5.157-12
 C4H6,1butyne    3.377-13
 C4H6,2butyne    3.141-13
 C4H6,cyclo-     8.675-15
 C4H8,1-butene   1.271-14
 C4H8,cis2-buten 5.477-15
 C4H8,tr2-butene 6.149-15
 C4H8,isobutene  6.996-15
 C4N2            4.287-12
 C5H6,1,3cyclo-  1.099-13
 C6H2            1.369-13
 C6H5,phenyl     1.045-15
 C6H6            7.525-13
 C7H8            1.704-16
 *H              5.3936-5
 HCN             2.2263-3
 HCO             6.8279-8
 HCCN            2.337-15
 HCCO            9.542-11
 HNC             7.0502-5
 HNCO            4.1806-7
 HNO             3.118-14
 *H2             2.6028-1
 HCHO,formaldehy 2.2556-7
 HCOOH           1.479-10
 H2O             1.6903-4
 *N              6.099-12
 NCO             3.216-11
 *NH             1.284-10
 NH2             1.5060-8
 NH3             2.2707-5
 NH2OH           9.352-16
 *NO             6.632-11
 *N2             4.7689-1
 NCN             4.867-14
 N2H2            6.090-13
 N2H4            2.829-15
 N2O             8.470-15
 N3H             2.512-15
 *O              3.541-13
 *OH             2.5273-9
 *O2             1.020-16
 C(gr)           5.8430-3

  * THERMODYNAMIC PROPERTIES FITTED TO 20000.K









         THERMODYNAMIC EQUILIBRIUM COMBUSTION PROPERTIES AT ASSIGNED

                                     VOLUME

 CASE =                

             REACTANT                       MOLES         ENERGY      TEMP
                                                         KJ/KG-MOL      K
 FUEL        C2H4                         1.0000000     50085.152    300.000
 OXIDANT     O2                           3.0000000     -2439.995    300.000
 OXIDANT     N2                          11.2857000     -2440.472    300.000

 O/F=    4.59114  %FUEL= 17.885437  R,EQ.RATIO= 3.200000  PHI,EQ.RATIO= 3.200000

 THERMODYNAMIC PROPERTIES

 P, BAR            7.9905
 T, K             1768.61
 RHO, KG/CU M    1.1523 0
 H, KJ/KG          943.30
 U, KJ/KG          249.86
 G, KJ/KG        -17793.6
 S, KJ/(KG)(K)    10.5941

 M, (1/n)          21.206
 MW, MOL WT        20.906
 (dLV/dLP)t      -1.00076
 (dLV/dLT)p        1.0057
 Cp, KJ/(KG)(K)    1.7660
 GAMMAs            1.2883
 SON VEL,M/SEC      945.2

 MOLE FRACTIONS

 *C              1.331-14
 *CH             2.786-13
 CH2             4.463-10
 CH3             1.8793-6
 CH2OH           5.736-12
 CH3O            4.063-13
 CH4             4.9287-4
 CH3OH           1.404-10
 *CN             4.9571-9
 *CO             2.4965-1
 *CO2            4.5771-5
 COOH            7.301-12
 *C2             4.296-16
 C2H             5.138-11
 C2H2,acetylene  3.5760-5
 C2H2,vinylidene 8.035-10
 CH2CO,ketene    1.9329-7
 O(CH)2O         2.078-14
 C2H3,vinyl      2.3558-9
 CH3CN           1.0963-6
 CH3CO,acetyl    3.822-11
 C2H4            2.2668-6
 C2H4O,ethylen-o 4.715-15
 CH3CHO,ethanal  1.536-10
 CH3COOH         1.894-14
 C2H5            2.465-10
 C2H6            7.5331-9
 C2H5OH          1.529-14
 CNC             1.053-14
 OCCN            2.013-11
 C2N2            7.2965-8
 C2O             2.053-11
 *C3             5.321-15
 C3H3,1-propynl  3.002-13
 C3H3,2-propynl  3.7582-9
 C3H4,allene     2.9369-9
 C3H4,propyne    7.6650-9
 C3H4,cyclo-     6.512-12
 C3H5,allyl      4.748-11
 C3H6,propylene  3.686-10
 C3H6,cyclo-     9.915-13
 C3H6O,acetone   1.107-14
 C3H6O,propanal  5.429-15
 C3H7,n-propyl   9.739-15
 C3H7,i-propyl   8.739-15
 C3H8            3.052-13
 CNCOCN          1.112-15
 C3O2            6.175-11
 C4H2,butadiyne  1.8935-9
 C4H4,1,3-cyclo- 5.602-15
 C4H6,butadiene  5.238-12
 C4H6,1butyne    3.367-13
 C4H6,2butyne    3.162-13
 C4H6,cyclo-     8.681-15
 C4H8,1-butene   1.385-14
 C4H8,cis2-buten 5.995-15
 C4H8,tr2-butene 6.732-15
 C4H8,isobutene  7.675-15
 C4N2            3.406-12
 C5H6,1,3cyclo-  1.109-13
 C6H2            1.064-13
 C6H5,phenyl     9.631-16
 C6H6            7.761-13
 C7H8            1.820-16
 *H              4.9519-5
 HCN             2.1123-3
 HCO             6.3854-8
 HCCN            1.829-15
 HCCO            8.447-11
 HNC             6.5243-5
 HNCO            4.1382-7
 HNO             2.824-14
 *H2             2.6422-1
 HCHO,formaldehy 2.2668-7
 HCOOH           1.554-10
 H2O             1.7893-4
 *N              4.981-12
 NCO             2.846-11
 *NH             1.113-10
 NH2             1.4124-8
 NH3             2.3677-5
 NH2OH           9.183-16
 *NO             5.965-11
 *N2             4.6898-1
 NCN             3.912-14
 N2H2            5.620-13
 N2H4            2.797-15
 N2O             7.587-15
 N3H             2.204-15
 *O              3.001-13
 *OH             2.3620-9
 C(gr)           1.4135-2

  * THERMODYNAMIC PROPERTIES FITTED TO 20000.K









         THERMODYNAMIC EQUILIBRIUM COMBUSTION PROPERTIES AT ASSIGNED

                                     VOLUME

 CASE =                

             REACTANT                       MOLES         ENERGY      TEMP
                                                         KJ/KG-MOL      K
 FUEL        C2H4                         1.0000000     50085.152    300.000
 OXIDANT     O2                           3.0000000     -2439.995    300.000
 OXIDANT     N2                          11.2857000     -2440.472    300.000

 O/F=    4.45202  %FUEL= 18.341841  R,EQ.RATIO= 3.300000  PHI,EQ.RATIO= 3.300000

 THERMODYNAMIC PROPERTIES

 P, BAR            7.9667
 T, K             1758.46
 RHO, KG/CU M    1.1523 0
 H, KJ/KG          949.77
 U, KJ/KG          258.40
 G, KJ/KG        -17710.3
 S, KJ/(KG)(K)    10.6116

 M, (1/n)          21.147
 MW, MOL WT        20.679
 (dLV/dLP)t      -1.00082
 (dLV/dLT)p        1.0060
 Cp, KJ/(KG)(K)    1.7773
 GAMMAs            1.2871
 SON VEL,M/SEC      943.3

 MOLE FRACTIONS

 *C              9.991-15
 *CH             2.217-13
 CH2             3.897-10
 CH3             1.8260-6
 CH2OH           5.614-12
 CH3O            3.916-13
 CH4             5.2797-4
 CH3OH           1.495-10
 *CN             4.1356-9
 *CO             2.4554-1
 *CO2            4.7430-5
 COOH            7.124-12
 *C2             3.089-16
 C2H             4.139-11
 C2H2,acetylene  3.3252-5
 C2H2,vinylidene 6.961-10
 CH2CO,ketene    1.8944-7
 O(CH)2O         2.044-14
 C2H3,vinyl      2.1583-9
 CH3CN           1.0930-6
 CH3CO,acetyl    3.725-11
 C2H4            2.3126-6
 C2H4O,ethylen-o 4.728-15
 CH3CHO,ethanal  1.612-10
 CH3COOH         2.075-14
 C2H5            2.477-10
 C2H6            8.2841-9
 C2H5OH          1.683-14
 CNC             7.964-15
 OCCN            1.733-11
 C2N2            6.3485-8
 C2O             1.722-11
 *C3             3.830-15
 C3H3,1-propynl  2.596-13
 C3H3,2-propynl  3.3930-9
 C3H4,allene     2.8341-9
 C3H4,propyne    7.4171-9
 C3H4,cyclo-     6.077-12
 C3H5,allyl      4.674-11
 C3H6,propylene  3.890-10
 C3H6,cyclo-     1.032-12
 C3H6O,acetone   1.211-14
 C3H6O,propanal  5.853-15
 C3H7,n-propyl   1.006-14
 C3H7,i-propyl   9.071-15
 C3H8            3.453-13
 CNCOCN          9.358-16
 C3O2            5.682-11
 C4H2,butadiyne  1.6123-9
 C4H4,1,3-cyclo- 5.011-15
 C4H6,butadiene  5.312-12
 C4H6,1butyne    3.351-13
 C4H6,2butyne    3.177-13
 C4H6,cyclo-     8.674-15
 C4H8,1-butene   1.505-14
 C4H8,cis2-buten 6.540-15
 C4H8,tr2-butene 7.343-15
 C4H8,isobutene  8.391-15
 C4N2            2.717-12
 C5H6,1,3cyclo-  1.117-13
 C6H2            8.298-14
 C6H5,phenyl     8.875-16
 C6H6            7.988-13
 C7H8            1.939-16
 *H              4.5521-5
 HCN             2.0054-3
 HCO             5.9769-8
 HCCN            1.437-15
 HCCO            7.491-11
 HNC             6.0442-5
 HNCO            4.0959-7
 HNO             2.561-14
 *H2             2.6803-1
 HCHO,formaldehy 2.2767-7
 HCOOH           1.632-10
 H2O             1.8913-4
 *N              4.082-12
 NCO             2.524-11
 *NH             9.660-11
 NH2             1.3255-8
 NH3             2.4654-5
 NH2OH           9.014-16
 *NO             5.375-11
 *N2             4.6134-1
 NCN             3.156-14
 N2H2            5.190-13
 N2H4            2.763-15
 N2O             6.809-15
 N3H             1.938-15
 *O              2.551-13
 *OH             2.2096-9
 C(gr)           2.2150-2

  * THERMODYNAMIC PROPERTIES FITTED TO 20000.K









         THERMODYNAMIC EQUILIBRIUM COMBUSTION PROPERTIES AT ASSIGNED

                                     VOLUME

 CASE =                

             REACTANT                       MOLES         ENERGY      TEMP
                                                         KJ/KG-MOL      K
 FUEL        C2H4                         1.0000000     50085.152    300.000
 OXIDANT     O2                           3.0000000     -2439.995    300.000
 OXIDANT     N2                          11.2857000     -2440.472    300.000

 O/F=    4.32107  %FUEL= 18.793199  R,EQ.RATIO= 3.400000  PHI,EQ.RATIO= 3.400000

 THERMODYNAMIC PROPERTIES

 P, BAR            7.9437
 T, K             1748.59
 RHO, KG/CU M    1.1523 0
 H, KJ/KG          956.21
 U, KJ/KG          266.84
 G, KJ/KG        -17629.2
 S, KJ/(KG)(K)    10.6288

 M, (1/n)          21.090
 MW, MOL WT        20.459
 (dLV/dLP)t      -1.00087
 (dLV/dLT)p        1.0065
 Cp, KJ/(KG)(K)    1.7885
 GAMMAs            1.2860
 SON VEL,M/SEC      941.6

 MOLE FRACTIONS

 *C              7.535-15
 *CH             1.771-13
 CH2             3.409-10
 CH3             1.7738-6
 CH2OH           5.493-12
 CH3O            3.774-13
 CH4             5.6443-4
 CH3OH           1.588-10
 *CN             3.4608-9
 *CO             2.4157-1
 *CO2            4.9120-5
 COOH            6.952-12
 *C2             2.234-16
 C2H             3.345-11
 C2H2,acetylene  3.0944-5
 C2H2,vinylidene 6.043-10
 CH2CO,ketene    1.8565-7
 O(CH)2O         2.012-14
 C2H3,vinyl      1.9790-9
 CH3CN           1.0890-6
 CH3CO,acetyl    3.630-11
 C2H4            2.3564-6
 C2H4O,ethylen-o 4.737-15
 CH3CHO,ethanal  1.688-10
 CH3COOH         2.268-14
 C2H5            2.486-10
 C2H6            9.0832-9
 C2H5OH          1.846-14
 CNC             6.049-15
 OCCN            1.496-11
 C2N2            5.5367-8
 C2O             1.449-11
 *C3             2.772-15
 C3H3,1-propynl  2.249-13
 C3H3,2-propynl  3.0665-9
 C3H4,allene     2.7341-9
 C3H4,propyne    7.1749-9
 C3H4,cyclo-     5.673-12
 C3H5,allyl      4.598-11
 C3H6,propylene  4.096-10
 C3H6,cyclo-     1.072-12
 C3H6O,acetone   1.321-14
 C3H6O,propanal  6.293-15
 C3H7,n-propyl   1.037-14
 C3H7,i-propyl   9.395-15
 C3H8            3.892-13
 CNCOCN          7.897-16
 C3O2            5.236-11
 C4H2,butadiyne  1.3760-9
 C4H4,1,3-cyclo- 4.487-15
 C4H6,butadiene  5.379-12
 C4H6,1butyne    3.332-13
 C4H6,2butyne    3.189-13
 C4H6,cyclo-     8.655-15
 C4H8,1-butene   1.629-14
 C4H8,cis2-buten 7.111-15
 C4H8,tr2-butene 7.984-15
 C4H8,isobutene  9.143-15
 C4N2            2.176-12
 C5H6,1,3cyclo-  1.124-13
 C6H2            6.497-14
 C6H5,phenyl     8.180-16
 C6H6            8.206-13
 C7H8            2.060-16
 *H              4.1897-5
 HCN             1.9052-3
 HCO             5.5995-8
 HCCN            1.133-15
 HCCO            6.656-11
 HNC             5.6053-5
 HNCO            4.0539-7
 HNO             2.326-14
 *H2             2.7171-1
 HCHO,formaldehy 2.2854-7
 HCOOH           1.711-10
 H2O             1.9963-4
 *N              3.356-12
 NCO             2.242-11
 *NH             8.406-11
 NH2             1.2447-8
 NH3             2.5637-5
 NH2OH           8.845-16
 *NO             4.852-11
 *N2             4.5395-1
 NCN             2.555-14
 N2H2            4.798-13
 N2H4            2.728-15
 N2O             6.122-15
 N3H             1.707-15
 *O              2.174-13
 *OH             2.0689-9
 C(gr)           2.9901-2

  * THERMODYNAMIC PROPERTIES FITTED TO 20000.K









         THERMODYNAMIC EQUILIBRIUM COMBUSTION PROPERTIES AT ASSIGNED

                                     VOLUME

 CASE =                

             REACTANT                       MOLES         ENERGY      TEMP
                                                         KJ/KG-MOL      K
 FUEL        C2H4                         1.0000000     50085.152    300.000
 OXIDANT     O2                           3.0000000     -2439.995    300.000
 OXIDANT     N2                          11.2857000     -2440.472    300.000

 O/F=    4.19761  %FUEL= 19.239595  R,EQ.RATIO= 3.500000  PHI,EQ.RATIO= 3.500000

 THERMODYNAMIC PROPERTIES

 P, BAR            7.9214
 T, K             1738.99
 RHO, KG/CU M    1.1523 0
 H, KJ/KG          962.63
 U, KJ/KG          275.18
 G, KJ/KG        -17550.2
 S, KJ/(KG)(K)    10.6457

 M, (1/n)          21.033
 MW, MOL WT        20.246
 (dLV/dLP)t      -1.00093
 (dLV/dLT)p        1.0069
 Cp, KJ/(KG)(K)    1.7998
 GAMMAs            1.2849
 SON VEL,M/SEC      939.8

 MOLE FRACTIONS

 *C              5.710-15
 *CH             1.419-13
 CH2             2.987-10
 CH3             1.7229-6
 CH2OH           5.373-12
 CH3O            3.637-13
 CH4             6.0225-4
 CH3OH           1.684-10
 *CN             2.9048-9
 *CO             2.3772-1
 *CO2            5.0841-5
 COOH            6.787-12
 *C2             1.624-16
 C2H             2.713-11
 C2H2,acetylene  2.8819-5
 C2H2,vinylidene 5.256-10
 CH2CO,ketene    1.8192-7
 O(CH)2O         1.979-14
 C2H3,vinyl      1.8162-9
 CH3CN           1.0844-6
 CH3CO,acetyl    3.537-11
 C2H4            2.3984-6
 C2H4O,ethylen-o 4.741-15
 CH3CHO,ethanal  1.766-10
 CH3COOH         2.473-14
 C2H5            2.492-10
 C2H6            9.9316-9
 C2H5OH          2.020-14
 CNC             4.616-15
 OCCN            1.295-11
 C2N2            4.8399-8
 C2O             1.223-11
 *C3             2.017-15
 C3H3,1-propynl  1.951-13
 C3H3,2-propynl  2.7744-9
 C3H4,allene     2.6370-9
 C3H4,propyne    6.9387-9
 C3H4,cyclo-     5.297-12
 C3H5,allyl      4.519-11
 C3H6,propylene  4.304-10
 C3H6,cyclo-     1.111-12
 C3H6O,acetone   1.437-14
 C3H6O,propanal  6.749-15
 C3H7,n-propyl   1.067-14
 C3H7,i-propyl   9.711-15
 C3H8            4.371-13
 CNCOCN          6.683-16
 C3O2            4.832-11
 C4H2,butadiyne  1.1770-9
 C4H4,1,3-cyclo- 4.022-15
 C4H6,butadiene  5.439-12
 C4H6,1butyne    3.308-13
 C4H6,2butyne    3.196-13
 C4H6,cyclo-     8.627-15
 C4H8,1-butene   1.758-14
 C4H8,cis2-buten 7.708-15
 C4H8,tr2-butene 8.655-15
 C4H8,isobutene  9.932-15
 C4N2            1.749-12
 C5H6,1,3cyclo-  1.129-13
 C6H2            5.106-14
 C6H5,phenyl     7.542-16
 C6H6            8.416-13
 C7H8            2.182-16
 *H              3.8610-5
 HCN             1.8112-3
 HCO             5.2506-8
 HCCN            8.967-16
 HCCO            5.924-11
 HNC             5.2038-5
 HNCO            4.0120-7
 HNO             2.115-14
 *H2             2.7526-1
 HCHO,formaldehy 2.2931-7
 HCOOH           1.791-10
 H2O             2.1044-4
 *N              2.769-12
 NCO             1.997-11
 *NH             7.330-11
 NH2             1.1696-8
 NH3             2.6624-5
 NH2OH           8.677-16
 *NO             4.387-11
 *N2             4.4679-1
 NCN             2.076-14
 N2H2            4.440-13
 N2H4            2.691-15
 N2O             5.515-15
 N3H             1.507-15
 *O              1.858-13
 *OH             1.9389-9
 C(gr)           3.7402-2

  * THERMODYNAMIC PROPERTIES FITTED TO 20000.K









         THERMODYNAMIC EQUILIBRIUM COMBUSTION PROPERTIES AT ASSIGNED

                                     VOLUME

 CASE =                

             REACTANT                       MOLES         ENERGY      TEMP
                                                         KJ/KG-MOL      K
 FUEL        C2H4                         1.0000000     50085.152    300.000
 OXIDANT     O2                           3.0000000     -2439.995    300.000
 OXIDANT     N2                          11.2857000     -2440.472    300.000

 O/F=    4.08101  %FUEL= 19.681111  R,EQ.RATIO= 3.600000  PHI,EQ.RATIO= 3.600000

 THERMODYNAMIC PROPERTIES

 P, BAR            7.8998
 T, K             1729.66
 RHO, KG/CU M    1.1523 0
 H, KJ/KG          969.01
 U, KJ/KG          283.44
 G, KJ/KG        -17473.2
 S, KJ/(KG)(K)    10.6623

 M, (1/n)          20.977
 MW, MOL WT        20.040
 (dLV/dLP)t      -1.00099
 (dLV/dLT)p        1.0073
 Cp, KJ/(KG)(K)    1.8110
 GAMMAs            1.2838
 SON VEL,M/SEC      938.2

 MOLE FRACTIONS

 *C              4.348-15
 *CH             1.142-13
 CH2             2.623-10
 CH3             1.6734-6
 CH2OH           5.255-12
 CH3O            3.506-13
 CH4             6.4142-4
 CH3OH           1.783-10
 *CN             2.4453-9
 *CO             2.3400-1
 *CO2            5.2590-5
 COOH            6.626-12
 *C2             1.187-16
 C2H             2.208-11
 C2H2,acetylene  2.6862-5
 C2H2,vinylidene 4.580-10
 CH2CO,ketene    1.7826-7
 O(CH)2O         1.947-14
 C2H3,vinyl      1.6681-9
 CH3CN           1.0793-6
 CH3CO,acetyl    3.445-11
 C2H4            2.4384-6
 C2H4O,ethylen-o 4.742-15
 CH3CHO,ethanal  1.844-10
 CH3COOH         2.691-14
 C2H5            2.496-10
 C2H6            1.0831-8
 C2H5OH          2.204-14
 CH3OCH3         1.069-16
 CNC             3.538-15
 OCCN            1.123-11
 C2N2            4.2402-8
 C2O             1.035-11
 *C3             1.475-15
 C3H3,1-propynl  1.696-13
 C3H3,2-propynl  2.5129-9
 C3H4,allene     2.5430-9
 C3H4,propyne    6.7089-9
 C3H4,cyclo-     4.949-12
 C3H5,allyl      4.439-11
 C3H6,propylene  4.513-10
 C3H6,cyclo-     1.150-12
 C3H6O,acetone   1.560-14
 C3H6O,propanal  7.223-15
 C3H7,n-propyl   1.096-14
 C3H7,i-propyl   1.002-14
 C3H8            4.892-13
 CNCOCN          5.672-16
 C3O2            4.465-11
 C4H2,butadiyne  1.0091-9
 C4H4,1,3-cyclo- 3.609-15
 C4H6,butadiene  5.492-12
 C4H6,1butyne    3.282-13
 C4H6,2butyne    3.199-13
 C4H6,cyclo-     8.589-15
 C4H8,1-butene   1.892-14
 C4H8,cis2-buten 8.332-15
 C4H8,tr2-butene 9.355-15
 C4H8,isobutene  1.076-14
 C4N2            1.411-12
 C5H6,1,3cyclo-  1.133-13
 C6H2            4.028-14
 C6H5,phenyl     6.956-16
 C6H6            8.619-13
 C7H8            2.305-16
 *H              3.5624-5
 HCN             1.7229-3
 HCO             4.9278-8
 HCCN            7.125-16
 HCCO            5.282-11
 HNC             4.8362-5
 HNCO            3.9705-7
 HNO             1.927-14
 *H2             2.7870-1
 HCHO,formaldehy 2.2998-7
 HCOOH           1.874-10
 H2O             2.2155-4
 *N              2.292-12
 NCO             1.781-11
 *NH             6.405-11
 NH2             1.0997-8
 NH3             2.7616-5
 NH2OH           8.510-16
 *NO             3.974-11
 *N2             4.3985-1
 NCN             1.693-14
 N2H2            4.113-13
 N2H4            2.654-15
 N2O             4.976-15
 N3H             1.332-15
 *O              1.592-13
 *OH             1.8188-9
 C(gr)           4.4664-2

  * THERMODYNAMIC PROPERTIES FITTED TO 20000.K



