
 *******************************************************************************

         NASA-GLENN CHEMICAL EQUILIBRIUM PROGRAM CEA2, MAY 21, 2004
                   BY  BONNIE MCBRIDE AND SANFORD GORDON
      REFS: NASA RP-1311, PART I, 1994 AND NASA RP-1311, PART II, 1996

 *******************************************************************************



 problem    phi,eq.ratio=2.1,2.2,2.3,2.4,2.5,2.6,2.7,2.8,2.9,3,3.1,3.2,3.3,3.4,3.
 5,3.6,
       uv   rho,kg/m**3=1.2541,  t,k=3800
 react
   fuel=C2H6 moles=1 t,k=300
   oxid=O2 moles=3.5 t,k=300
 output
      trace=1e-16 siunits short
 end




         THERMODYNAMIC EQUILIBRIUM COMBUSTION PROPERTIES AT ASSIGNED

                                     VOLUME

 CASE =                

             REACTANT                       MOLES         ENERGY      TEMP
                                                         KJ/KG-MOL      K
 FUEL        C2H6                         1.0000000    -86248.563    300.000
 OXIDANT     O2                           3.5000000     -2439.995    300.000

 O/F=    1.77363  %FUEL= 36.053843  R,EQ.RATIO= 2.100000  PHI,EQ.RATIO= 2.100000

 THERMODYNAMIC PROPERTIES

 P, BAR            20.150
 T, K             3155.55
 RHO, KG/CU M    1.2541 0
 H, KJ/KG          523.86
 U, KJ/KG        -1082.91
 G, KJ/KG        -45553.8
 S, KJ/(KG)(K)    14.6021

 M, (1/n)          16.329
 (dLV/dLP)t      -1.01074
 (dLV/dLT)p        1.1981
 Cp, KJ/(KG)(K)    4.4580
 GAMMAs            1.1809
 SON VEL,M/SEC     1377.5

 MOLE FRACTIONS

 *C              8.014-10
 *CH             7.430-10
 CH2             3.7705-9
 CH3             1.8262-8
 CH2OH           6.933-10
 CH3O            1.808-10
 CH4             1.3219-8
 CH3OH           1.176-10
 CH3OOH          5.322-16
 *CO             3.6141-1
 *CO2            3.0152-2
 COOH            1.7775-6
 *C2             4.702-14
 C2H             4.117-12
 C2H2,acetylene  2.020-10
 C2H2,vinylidene 8.951-13
 CH2CO,ketene    4.350-10
 O(CH)2O         8.041-13
 HO(CO)2OH       7.003-15
 C2H3,vinyl      1.511-13
 CH3CO,acetyl    5.412-13
 C2H4            1.663-13
 CH3CHO,ethanal  3.009-14
 CH3COOH         3.427-15
 C2H5            2.206-16
 C2O             4.338-10
 C3O2            1.977-12
 *H              3.2601-2
 HCO             1.5544-5
 HCCO            9.687-11
 HO2             6.2551-7
 *H2             3.4503-1
 HCHO,formaldehy 1.0412-6
 HCOOH           6.1028-7
 H2O             2.2182-1
 H2O2            2.2918-7
 *O              4.4147-4
 *OH             8.4151-3
 *O2             1.1118-4
 O3              9.955-12

  * THERMODYNAMIC PROPERTIES FITTED TO 20000.K









         THERMODYNAMIC EQUILIBRIUM COMBUSTION PROPERTIES AT ASSIGNED

                                     VOLUME

 CASE =                

             REACTANT                       MOLES         ENERGY      TEMP
                                                         KJ/KG-MOL      K
 FUEL        C2H6                         1.0000000    -86248.563    300.000
 OXIDANT     O2                           3.5000000     -2439.995    300.000

 O/F=    1.69301  %FUEL= 37.133172  R,EQ.RATIO= 2.200000  PHI,EQ.RATIO= 2.200000

 THERMODYNAMIC PROPERTIES

 P, BAR            19.975
 T, K             3054.28
 RHO, KG/CU M    1.2541 0
 H, KJ/KG          479.75
 U, KJ/KG        -1113.05
 G, KJ/KG        -44530.1
 S, KJ/(KG)(K)    14.7367

 M, (1/n)          15.944
 (dLV/dLP)t      -1.00786
 (dLV/dLT)p        1.1482
 Cp, KJ/(KG)(K)    4.0774
 GAMMAs            1.1916
 SON VEL,M/SEC     1377.6

 MOLE FRACTIONS

 *C              4.641-10
 *CH             5.213-10
 CH2             3.5963-9
 CH3             2.4592-8
 CH2OH           7.003-10
 CH3O            1.715-10
 CH4             2.3923-8
 CH3OH           1.548-10
 CH3OOH          3.874-16
 *CO             3.6749-1
 *CO2            2.6272-2
 COOH            1.2823-6
 *C2             3.385-14
 C2H             4.256-12
 C2H2,acetylene  3.317-10
 C2H2,vinylidene 1.183-12
 CH2CO,ketene    6.195-10
 O(CH)2O         8.438-13
 HO(CO)2OH       5.133-15
 C2H3,vinyl      2.385-13
 CH3CO,acetyl    7.543-13
 C2H4            3.697-13
 CH3CHO,ethanal  5.342-14
 CH3COOH         5.061-15
 OHCH2COOH       1.042-16
 C2H5            4.687-16
 C2O             3.719-10
 C3H3,2-propynl  1.209-16
 C3O2            2.355-12
 *H              2.5502-2
 HCO             1.3512-5
 HCCO            9.996-11
 HO2             2.3858-7
 *H2             3.7434-1
 HCHO,formaldehy 1.1338-6
 HCOOH           5.5460-7
 H2O             2.0101-1
 H2O2            1.0938-7
 *O              1.9556-4
 *OH             5.1262-3
 *O2             4.1386-5
 O3              1.808-12

  * THERMODYNAMIC PROPERTIES FITTED TO 20000.K









         THERMODYNAMIC EQUILIBRIUM COMBUSTION PROPERTIES AT ASSIGNED

                                     VOLUME

 CASE =                

             REACTANT                       MOLES         ENERGY      TEMP
                                                         KJ/KG-MOL      K
 FUEL        C2H6                         1.0000000    -86248.563    300.000
 OXIDANT     O2                           3.5000000     -2439.995    300.000

 O/F=    1.61940  %FUEL= 38.176671  R,EQ.RATIO= 2.300000  PHI,EQ.RATIO= 2.300000

 THERMODYNAMIC PROPERTIES

 P, BAR            19.729
 T, K             2947.34
 RHO, KG/CU M    1.2541 0
 H, KJ/KG          431.02
 U, KJ/KG        -1142.18
 G, KJ/KG        -43366.1
 S, KJ/(KG)(K)    14.8599

 M, (1/n)          15.577
 (dLV/dLP)t      -1.00561
 (dLV/dLT)p        1.1085
 Cp, KJ/(KG)(K)    3.7613
 GAMMAs            1.2031
 SON VEL,M/SEC     1375.7

 MOLE FRACTIONS

 *C              2.432-10
 *CH             3.355-10
 CH2             3.2346-9
 CH3             3.2297-8
 CH2OH           6.805-10
 CH3O            1.554-10
 CH4             4.3484-8
 CH3OH           2.009-10
 CH3OOH          2.634-16
 *CO             3.7260-1
 *CO2            2.2933-2
 COOH            8.9358-7
 *C2             2.199-14
 C2H             4.115-12
 C2H2,acetylene  5.350-10
 C2H2,vinylidene 1.491-12
 CH2CO,ketene    8.713-10
 O(CH)2O         8.611-13
 HO(CO)2OH       3.668-15
 C2H3,vinyl      3.634-13
 CH3CO,acetyl    1.024-12
 C2H4            8.210-13
 CH3CHO,ethanal  9.420-14
 CH3COOH         7.430-15
 OHCH2COOH       1.075-16
 C2H5            9.771-16
 C2H6            2.319-16
 C2O             3.017-10
 C3H3,2-propynl  2.504-16
 C3O2            2.753-12
 *H              1.9147-2
 HCO             1.1341-5
 HCCO            9.881-11
 HO2             8.3445-8
 *H2             4.0189-1
 HCHO,formaldehy 1.2140-6
 HCOOH           4.9609-7
 H2O             1.8036-1
 H2O2            4.8717-8
 *O              8.0008-5
 *OH             2.9700-3
 *O2             1.4247-5
 O3              2.846-13

  * THERMODYNAMIC PROPERTIES FITTED TO 20000.K









         THERMODYNAMIC EQUILIBRIUM COMBUSTION PROPERTIES AT ASSIGNED

                                     VOLUME

 CASE =                

             REACTANT                       MOLES         ENERGY      TEMP
                                                         KJ/KG-MOL      K
 FUEL        C2H6                         1.0000000    -86248.563    300.000
 OXIDANT     O2                           3.5000000     -2439.995    300.000

 O/F=    1.55193  %FUEL= 39.186093  R,EQ.RATIO= 2.400000  PHI,EQ.RATIO= 2.400000

 THERMODYNAMIC PROPERTIES

 P, BAR            19.417
 T, K             2835.65
 RHO, KG/CU M    1.2541 0
 H, KJ/KG          377.88
 U, KJ/KG        -1170.37
 G, KJ/KG        -42077.5
 S, KJ/(KG)(K)    14.9720

 M, (1/n)          15.228
 (dLV/dLP)t      -1.00388
 (dLV/dLT)p        1.0773
 Cp, KJ/(KG)(K)    3.5005
 GAMMAs            1.2153
 SON VEL,M/SEC     1371.7

 MOLE FRACTIONS

 *C              1.147-10
 *CH             1.973-10
 CH2             2.7429-9
 CH3             4.1525-8
 CH2OH           6.368-10
 CH3O            1.346-10
 CH4             8.0023-8
 CH3OH           2.579-10
 CH3OOH          1.672-16
 *CO             3.7685-1
 *CO2            2.0047-2
 COOH            6.0014-7
 *C2             1.284-14
 C2H             3.724-12
 C2H2,acetylene  8.530-10
 C2H2,vinylidene 1.800-12
 CH2CO,ketene    1.2163-9
 O(CH)2O         8.566-13
 HO(CO)2OH       2.555-15
 C2H3,vinyl      5.378-13
 CH3CO,acetyl    1.361-12
 C2H4            1.839-12
 C2H4O,ethylen-o 1.024-16
 CH3CHO,ethanal  1.664-13
 CH3COOH         1.092-14
 OHCH2COOH       1.087-16
 C2H5            2.018-15
 C2H6            6.756-16
 C2O             2.314-10
 C3H3,2-propynl  5.098-16
 C3O2            3.168-12
 *H              1.3764-2
 HCO             9.1835-6
 HCCO            9.365-11
 HO2             2.6523-8
 *H2             4.2746-1
 HCHO,formaldehy 1.2806-6
 HCOOH           4.3713-7
 H2O             1.6020-1
 H2O2            2.0118-8
 *O              2.9981-5
 *OH             1.6290-3
 *O2             4.4919-6
 O3              3.823-14

  * THERMODYNAMIC PROPERTIES FITTED TO 20000.K









         THERMODYNAMIC EQUILIBRIUM COMBUSTION PROPERTIES AT ASSIGNED

                                     VOLUME

 CASE =                

             REACTANT                       MOLES         ENERGY      TEMP
                                                         KJ/KG-MOL      K
 FUEL        C2H6                         1.0000000    -86248.563    300.000
 OXIDANT     O2                           3.5000000     -2439.995    300.000

 O/F=    1.48985  %FUEL= 40.163083  R,EQ.RATIO= 2.500000  PHI,EQ.RATIO= 2.500000

 THERMODYNAMIC PROPERTIES

 P, BAR            19.040
 T, K             2720.10
 RHO, KG/CU M    1.2541 0
 H, KJ/KG          320.59
 U, KJ/KG        -1197.65
 G, KJ/KG        -40680.5
 S, KJ/(KG)(K)    15.0734

 M, (1/n)          14.896
 (dLV/dLP)t      -1.00258
 (dLV/dLT)p        1.0533
 Cp, KJ/(KG)(K)    3.2886
 GAMMAs            1.2281
 SON VEL,M/SEC     1365.5

 MOLE FRACTIONS

 *C              4.829-11
 *CH             1.056-10
 CH2             2.1919-9
 CH3             5.2488-8
 CH2OH           5.745-10
 CH3O            1.116-10
 CH4             1.5041-7
 CH3OH           3.293-10
 *CO             3.8039-1
 *CO2            1.7536-2
 COOH            3.8732-7
 *C2             6.713-15
 C2H             3.157-12
 C2H2,acetylene  1.3533-9
 C2H2,vinylidene 2.087-12
 CH2CO,ketene    1.6944-9
 O(CH)2O         8.323-13
 HO(CO)2OH       1.733-15
 C2H3,vinyl      7.778-13
 CH3CO,acetyl    1.781-12
 C2H4            4.199-12
 C2H4O,ethylen-o 1.474-16
 CH3CHO,ethanal  2.969-13
 CH3COOH         1.617-14
 OHCH2COOH       1.081-16
 C2H5            4.173-15
 C2H6            2.039-15
 C2O             1.675-10
 C3H3,2-propynl  1.031-15
 C3H4,propyne    1.184-16
 C3O2            3.603-12
 *H              9.4453-3
 HCO             7.1642-6
 HCCO            8.520-11
 HO2             7.5771-9
 *H2             4.5098-1
 HCHO,formaldehy 1.3334-6
 HCOOH           3.7955-7
 H2O             1.4079-1
 H2O2            7.6410-9
 *O              1.0190-5
 *OH             8.4086-4
 *O2             1.2822-6
 O3              4.302-15

  * THERMODYNAMIC PROPERTIES FITTED TO 20000.K









         THERMODYNAMIC EQUILIBRIUM COMBUSTION PROPERTIES AT ASSIGNED

                                     VOLUME

 CASE =                

             REACTANT                       MOLES         ENERGY      TEMP
                                                         KJ/KG-MOL      K
 FUEL        C2H6                         1.0000000    -86248.563    300.000
 OXIDANT     O2                           3.5000000     -2439.995    300.000

 O/F=    1.43255  %FUEL= 41.109178  R,EQ.RATIO= 2.600000  PHI,EQ.RATIO= 2.600000

 THERMODYNAMIC PROPERTIES

 P, BAR            18.605
 T, K             2601.67
 RHO, KG/CU M    1.2541 0
 H, KJ/KG          259.51
 U, KJ/KG        -1224.06
 G, KJ/KG        -39192.7
 S, KJ/(KG)(K)    15.1642

 M, (1/n)          14.581
 (dLV/dLP)t      -1.00165
 (dLV/dLT)p        1.0353
 Cp, KJ/(KG)(K)    3.1212
 GAMMAs            1.2410
 SON VEL,M/SEC     1356.9

 MOLE FRACTIONS

 *C              1.804-11
 *CH             5.120-11
 CH2             1.6506-9
 CH3             6.5531-8
 CH2OH           5.002-10
 CH3O            8.853-11
 CH4             2.9150-7
 CH3OH           4.201-10
 *CO             3.8335-1
 *CO2            1.5331-2
 COOH            2.3935-7
 *C2             3.130-15
 C2H             2.510-12
 C2H2,acetylene  2.1534-9
 C2H2,vinylidene 2.336-12
 CH2CO,ketene    2.3697-9
 O(CH)2O         7.919-13
 HO(CO)2OH       1.143-15
 C2H3,vinyl      1.107-12
 CH3CO,acetyl    2.308-12
 C2H4            9.900-12
 C2H4O,ethylen-o 2.113-16
 CH3CHO,ethanal  5.403-13
 CH3COOH         2.433-14
 OHCH2COOH       1.061-16
 C2H5            8.745-15
 C2H6            6.477-15
 C2O             1.143-10
 C3H3,2-propynl  2.093-15
 C3H4,allene     1.470-16
 C3H4,propyne    3.276-16
 C3O2            4.065-12
 *H              6.1689-3
 HCO             5.3768-6
 HCCO            7.452-11
 HO2             1.9217-9
 *H2             4.7247-1
 HCHO,formaldehy 1.3728-6
 HCOOH           3.2472-7
 H2O             1.2227-1
 H2O2            2.6447-9
 *O              3.1084-6
 *OH             4.0586-4
 *O2             3.2715-7
 O3              3.969-16

  * THERMODYNAMIC PROPERTIES FITTED TO 20000.K









         THERMODYNAMIC EQUILIBRIUM COMBUSTION PROPERTIES AT ASSIGNED

                                     VOLUME

 CASE =                

             REACTANT                       MOLES         ENERGY      TEMP
                                                         KJ/KG-MOL      K
 FUEL        C2H6                         1.0000000    -86248.563    300.000
 OXIDANT     O2                           3.5000000     -2439.995    300.000

 O/F=    1.37949  %FUEL= 42.025821  R,EQ.RATIO= 2.700000  PHI,EQ.RATIO= 2.700000

 THERMODYNAMIC PROPERTIES

 P, BAR            18.118
 T, K             2481.47
 RHO, KG/CU M    1.2541 0
 H, KJ/KG          195.06
 U, KJ/KG        -1249.65
 G, KJ/KG        -37633.7
 S, KJ/(KG)(K)    15.2445

 M, (1/n)          14.281
 (dLV/dLP)t      -1.00101
 (dLV/dLT)p        1.0224
 Cp, KJ/(KG)(K)    2.9938
 GAMMAs            1.2536
 SON VEL,M/SEC     1345.8

 MOLE FRACTIONS

 *C              5.948-12
 *CH             2.243-11
 CH2             1.1720-9
 CH3             8.1235-8
 CH2OH           4.205-10
 CH3O            6.726-11
 CH4             5.8820-7
 CH3OH           5.382-10
 *CO             3.8582-1
 *CO2            1.3369-2
 COOH            1.4104-7
 *C2             1.299-15
 C2H             1.878-12
 C2H2,acetylene  3.4679-9
 C2H2,vinylidene 2.539-12
 CH2CO,ketene    3.3489-9
 O(CH)2O         7.393-13
 HO(CO)2OH       7.310-16
 C2H3,vinyl      1.566-12
 CH3CO,acetyl    2.984-12
 C2H4            2.442-11
 C2H4O,ethylen-o 3.039-16
 CH3CHO,ethanal  1.013-12
 CH3COOH         3.746-14
 OHCH2COOH       1.030-16
 C2H5            1.881-14
 C2H6            2.203-14
 C2H5OH          1.070-16
 C2O             7.358-11
 C3H3,2-propynl  4.330-15
 C3H4,allene     4.201-16
 C3H4,propyne    9.520-16
 C3O2            4.572-12
 *H              3.8233-3
 HCO             3.8768-6
 HCCO            6.281-11
 HO2             4.269-10
 *H2             4.9206-1
 HCHO,formaldehy 1.4002-6
 HCOOH           2.7351-7
 H2O             1.0473-1
 H2O2            8.255-10
 *O              8.4174-7
 *OH             1.8191-4
 *O2             7.3578-8

  * THERMODYNAMIC PROPERTIES FITTED TO 20000.K









         THERMODYNAMIC EQUILIBRIUM COMBUSTION PROPERTIES AT ASSIGNED

                                     VOLUME

 CASE =                

             REACTANT                       MOLES         ENERGY      TEMP
                                                         KJ/KG-MOL      K
 FUEL        C2H6                         1.0000000    -86248.563    300.000
 OXIDANT     O2                           3.5000000     -2439.995    300.000

 O/F=    1.33022  %FUEL= 42.914365  R,EQ.RATIO= 2.800000  PHI,EQ.RATIO= 2.800000

 THERMODYNAMIC PROPERTIES

 P, BAR            17.586
 T, K             2360.67
 RHO, KG/CU M    1.2541 0
 H, KJ/KG          127.79
 U, KJ/KG        -1274.46
 G, KJ/KG        -36024.4
 S, KJ/(KG)(K)    15.3144

 M, (1/n)          13.997
 (dLV/dLP)t      -1.00059
 (dLV/dLT)p        1.0136
 Cp, KJ/(KG)(K)    2.9011
 GAMMAs            1.2655
 SON VEL,M/SEC     1332.1

 MOLE FRACTIONS

 *C              1.723-12
 *CH             8.862-12
 CH2             7.863-10
 CH3             1.0060-7
 CH2OH           3.418-10
 CH3O            4.898-11
 CH4             1.2487-6
 CH3OH           6.952-10
 *CO             3.8794-1
 *CO2            1.1595-2
 COOH            7.8862-8
 *C2             4.806-16
 C2H             1.329-12
 C2H2,acetylene  5.7149-9
 C2H2,vinylidene 2.701-12
 CH2CO,ketene    4.8184-9
 O(CH)2O         6.789-13
 HO(CO)2OH       4.507-16
 C2H3,vinyl      2.222-12
 CH3CO,acetyl    3.877-12
 C2H4            6.395-11
 C2H4O,ethylen-o 4.428-16
 CH3CHO,ethanal  1.977-12
 CH3COOH         5.942-14
 C2H5            4.215-14
 C2H6            8.169-14
 C2H5OH          2.488-16
 C2O             4.471-11
 C3H3,2-propynl  9.279-15
 C3H4,allene     1.283-15
 C3H4,propyne    2.962-15
 C3O2            5.158-12
 *H              2.2427-3
 HCO             2.6821-6
 HCCO            5.118-11
 HO2             8.188-11
 *H2             5.0993-1
 HCHO,formaldehy 1.4171-6
 HCOOH           2.2641-7
 H2O             8.8215-2
 H2O2            2.296-10
 *O              2.0008-7
 *OH             7.5124-5
 *O2             1.4367-8

  * THERMODYNAMIC PROPERTIES FITTED TO 20000.K









         THERMODYNAMIC EQUILIBRIUM COMBUSTION PROPERTIES AT ASSIGNED

                                     VOLUME

 CASE =                

             REACTANT                       MOLES         ENERGY      TEMP
                                                         KJ/KG-MOL      K
 FUEL        C2H6                         1.0000000    -86248.563    300.000
 OXIDANT     O2                           3.5000000     -2439.995    300.000

 O/F=    1.28435  %FUEL= 43.776084  R,EQ.RATIO= 2.900000  PHI,EQ.RATIO= 2.900000

 THERMODYNAMIC PROPERTIES

 P, BAR            17.016
 T, K             2240.39
 RHO, KG/CU M    1.2541 0
 H, KJ/KG          58.287
 U, KJ/KG        -1298.52
 G, KJ/KG        -34385.2
 S, KJ/(KG)(K)    15.3739

 M, (1/n)          13.729
 (dLV/dLP)t      -1.00033
 (dLV/dLT)p        1.0079
 Cp, KJ/(KG)(K)    2.8370
 GAMMAs            1.2763
 SON VEL,M/SEC     1316.0

 MOLE FRACTIONS

 *C              4.375-13
 *CH             3.158-12
 CH2             5.000-10
 CH3             1.2539-7
 CH2OH           2.687-10
 CH3O            3.420-11
 CH4             2.8218-6
 CH3OH           9.095-10
 *CO             3.8979-1
 *CO2            9.9560-3
 COOH            4.1568-8
 *C2             1.590-16
 C2H             8.980-13
 C2H2,acetylene  9.7715-9
 C2H2,vinylidene 2.846-12
 CH2CO,ketene    7.1207-9
 O(CH)2O         6.145-13
 HO(CO)2OH       2.658-16
 C2H3,vinyl      3.206-12
 CH3CO,acetyl    5.109-12
 C2H4            1.810-10
 C2H4O,ethylen-o 6.604-16
 CH3CHO,ethanal  4.066-12
 CH3COOH         9.780-14
 C2H5            1.001-13
 C2H6            3.373-13
 C2H5OH          6.168-16
 C2O             2.572-11
 C3H3,2-propynl  2.104-14
 C3H4,allene     4.290-15
 C3H4,propyne    1.010-14
 C3H6,propylene  1.779-16
 C3O2            5.878-12
 *H              1.2417-3
 HCO             1.7782-6
 HCCO            4.053-11
 HO2             1.332-11
 *H2             5.2626-1
 HCHO,formaldehy 1.4256-6
 HCOOH           1.8359-7
 H2O             7.2725-2
 H2O2            5.607-11
 *O              4.1223-8
 *OH             2.8325-5
 *O2             2.3916-9

  * THERMODYNAMIC PROPERTIES FITTED TO 20000.K









         THERMODYNAMIC EQUILIBRIUM COMBUSTION PROPERTIES AT ASSIGNED

                                     VOLUME

 CASE =                

             REACTANT                       MOLES         ENERGY      TEMP
                                                         KJ/KG-MOL      K
 FUEL        C2H6                         1.0000000    -86248.563    300.000
 OXIDANT     O2                           3.5000000     -2439.995    300.000

 O/F=    1.24154  %FUEL= 44.612175  R,EQ.RATIO= 3.000000  PHI,EQ.RATIO= 3.000000

 THERMODYNAMIC PROPERTIES

 P, BAR            16.416
 T, K             2121.59
 RHO, KG/CU M    1.2541 0
 H, KJ/KG         -12.877
 U, KJ/KG        -1321.87
 G, KJ/KG        -32733.9
 S, KJ/(KG)(K)    15.4229

 M, (1/n)          13.476
 (dLV/dLP)t      -1.00019
 (dLV/dLT)p        1.0044
 Cp, KJ/(KG)(K)    2.7951
 GAMMAs            1.2862
 SON VEL,M/SEC     1297.5

 MOLE FRACTIONS

 *C              9.733-14
 *CH             1.016-12
 CH2             3.031-10
 CH3             1.5886-7
 CH2OH           2.045-10
 CH3O            2.291-11
 CH4             6.8841-6
 CH3OH           1.2098-9
 *CO             3.9146-1
 *CO2            8.4032-3
 COOH            2.0460-8
 C2H             5.865-13
 C2H2,acetylene  1.7668-8
 C2H2,vinylidene 3.015-12
 CH2CO,ketene    1.0932-8
 O(CH)2O         5.495-13
 HO(CO)2OH       1.479-16
 C2H3,vinyl      4.795-12
 CH3CO,acetyl    6.906-12
 C2H4            5.666-10
 C2H4O,ethylen-o 1.021-15
 CH3CHO,ethanal  8.936-12
 CH3COOH         1.682-13
 C2H5            2.576-13
 C2H6            1.593-12
 C2H5OH          1.658-15
 C2O             1.408-11
 C3H3,2-propynl  5.193-14
 C3H4,allene     1.621-14
 C3H4,propyne    3.901-14
 C3H5,allyl      4.012-16
 C3H6,propylene  1.133-15
 C3O2            6.835-12
 C4H2,butadiyne  2.322-16
 *H              6.4694-4
 HCO             1.1280-6
 HCCO            3.141-11
 HO2             1.793-12
 *H2             5.4123-1
 HCHO,formaldehy 1.4274-6
 HCOOH           1.4494-7
 H2O             5.8240-2
 H2O2            1.177-11
 *O              7.2438-9
 *OH             9.6296-6
 *O2             3.313-10

  * THERMODYNAMIC PROPERTIES FITTED TO 20000.K









         THERMODYNAMIC EQUILIBRIUM COMBUSTION PROPERTIES AT ASSIGNED

                                     VOLUME

 CASE =                

             REACTANT                       MOLES         ENERGY      TEMP
                                                         KJ/KG-MOL      K
 FUEL        C2H6                         1.0000000    -86248.563    300.000
 OXIDANT     O2                           3.5000000     -2439.995    300.000

 O/F=    1.20149  %FUEL= 45.423763  R,EQ.RATIO= 3.100000  PHI,EQ.RATIO= 3.100000

 THERMODYNAMIC PROPERTIES

 P, BAR            15.793
 T, K             2005.00
 RHO, KG/CU M    1.2541 0
 H, KJ/KG         -85.209
 U, KJ/KG        -1344.53
 G, KJ/KG        -31085.0
 S, KJ/(KG)(K)    15.4613

 M, (1/n)          13.238
 (dLV/dLP)t      -1.00016
 (dLV/dLT)p        1.0027
 Cp, KJ/(KG)(K)    2.7698
 GAMMAs            1.2950
 SON VEL,M/SEC     1277.1

 MOLE FRACTIONS

 *C              1.901-14
 *CH             2.970-13
 CH2             1.767-10
 CH3             2.0756-7
 CH2OH           1.505-10
 CH3O            1.471-11
 CH4             1.8490-5
 CH3OH           1.6426-9
 *CO             3.9304-1
 *CO2            6.8884-3
 COOH            9.2620-9
 C2H             3.786-13
 C2H2,acetylene  3.4771-8
 C2H2,vinylidene 3.294-12
 CH2CO,ketene    1.7722-8
 O(CH)2O         4.861-13
 C2H3,vinyl      7.638-12
 CH3CO,acetyl    9.732-12
 C2H4            2.0283-9
 C2H4O,ethylen-o 1.666-15
 CH3CHO,ethanal  2.141-11
 CH3COOH         3.042-13
 C2H5            7.424-13
 C2H6            8.919-12
 C2H5OH          4.937-15
 C2O             7.395-12
 C3H3,2-propynl  1.458-13
 C3H4,allene     7.251-14
 C3H4,propyne    1.787-13
 C3H4,cyclo-     3.184-16
 C3H5,allyl      1.933-15
 C3H6,propylene  8.958-15
 C3O2            8.231-12
 C4H2,butadiyne  8.699-16
 *H              3.1591-4
 HCO             6.8298-7
 HCCO            2.410-11
 HO2             1.928-13
 *H2             5.5500-1
 HCHO,formaldehy 1.4243-6
 HCOOH           1.1016-7
 H2O             4.4734-2
 H2O2            2.054-12
 *O              1.0609-9
 *OH             2.8977-6
 *O2             3.682-11

  * THERMODYNAMIC PROPERTIES FITTED TO 20000.K









         THERMODYNAMIC EQUILIBRIUM COMBUSTION PROPERTIES AT ASSIGNED

                                     VOLUME

 CASE =                

             REACTANT                       MOLES         ENERGY      TEMP
                                                         KJ/KG-MOL      K
 FUEL        C2H6                         1.0000000    -86248.563    300.000
 OXIDANT     O2                           3.5000000     -2439.995    300.000

 O/F=    1.16394  %FUEL= 46.211911  R,EQ.RATIO= 3.200000  PHI,EQ.RATIO= 3.200000

 THERMODYNAMIC PROPERTIES

 P, BAR            15.153
 T, K             1891.18
 RHO, KG/CU M    1.2541 0
 H, KJ/KG         -158.29
 U, KJ/KG        -1366.53
 G, KJ/KG        -29450.0
 S, KJ/(KG)(K)    15.4886

 M, (1/n)          13.014
 (dLV/dLP)t      -1.00026
 (dLV/dLT)p        1.0027
 Cp, KJ/(KG)(K)    2.7582
 GAMMAs            1.3031
 SON VEL,M/SEC     1254.8

 MOLE FRACTIONS

 *C              3.293-15
 *CH             7.984-14
 CH2             1.010-10
 CH3             2.8662-7
 CH2OH           1.071-10
 CH3O            9.039-12
 CH4             5.6354-5
 CH3OH           2.2854-9
 *CO             3.9460-1
 *CO2            5.3625-3
 COOH            3.7561-9
 C2H             2.517-13
 C2H2,acetylene  7.8262-8
 C2H2,vinylidene 3.884-12
 CH2CO,ketene    3.1162-8
 O(CH)2O         4.261-13
 C2H3,vinyl      1.360-11
 CH3CO,acetyl    1.468-11
 C2H4            8.7662-9
 C2H4O,ethylen-o 2.948-15
 CH3CHO,ethanal  5.764-11
 CH3COOH         5.835-13
 C2H5            2.527-12
 C2H6            6.282-11
 C2H5OH          1.683-14
 CH3OCH3         1.092-16
 C2O             3.796-12
 C3H3,2-propynl  5.015-13
 C3H4,allene     4.155-13
 C3H4,propyne    1.051-12
 C3H4,cyclo-     1.341-15
 C3H5,allyl      1.202-14
 C3H6,propylene  9.559-14
 C3H6,cyclo-     3.010-16
 C3H6O,acetone   2.548-16
 C3H6O,propanal  1.476-16
 C3H8            1.812-16
 C3O2            1.053-11
 C4H2,butadiyne  4.269-15
 *H              1.4388-4
 HCO             3.9353-7
 HCCO            1.869-11
 HO2             1.561-14
 *H2             5.6764-1
 HCHO,formaldehy 1.4176-6
 HCOOH           7.8857-8
 H2O             3.2195-2
 H2O2            2.822-13
 *O              1.250-10
 *OH             7.4886-7
 *O2             3.097-12

  * THERMODYNAMIC PROPERTIES FITTED TO 20000.K









         THERMODYNAMIC EQUILIBRIUM COMBUSTION PROPERTIES AT ASSIGNED

                                     VOLUME

 CASE =                

             REACTANT                       MOLES         ENERGY      TEMP
                                                         KJ/KG-MOL      K
 FUEL        C2H6                         1.0000000    -86248.563    300.000
 OXIDANT     O2                           3.5000000     -2439.995    300.000

 O/F=    1.12867  %FUEL= 46.977618  R,EQ.RATIO= 3.300000  PHI,EQ.RATIO= 3.300000

 THERMODYNAMIC PROPERTIES

 P, BAR            14.501
 T, K             1780.96
 RHO, KG/CU M    1.2541 0
 H, KJ/KG         -231.62
 U, KJ/KG        -1387.91
 G, KJ/KG        -27844.2
 S, KJ/(KG)(K)    15.5043

 M, (1/n)          12.806
 (dLV/dLP)t      -1.00083
 (dLV/dLT)p        1.0067
 Cp, KJ/(KG)(K)    2.7706
 GAMMAs            1.3100
 SON VEL,M/SEC     1230.8

 MOLE FRACTIONS

 *C              5.276-16
 *CH             2.062-14
 CH2             5.921-11
 CH3             4.3936-7
 CH2OH           7.364-11
 CH3O            5.313-12
 CH4             2.0534-4
 CH3OH           3.2651-9
 *CO             3.9617-1
 *CO2            3.7794-3
 COOH            1.2983-9
 C2H             1.895-13
 C2H2,acetylene  2.2238-7
 C2H2,vinylidene 5.439-12
 CH2CO,ketene    6.2512-8
 O(CH)2O         3.704-13
 C2H3,vinyl      2.988-11
 CH3CO,acetyl    2.493-11
 C2H4            5.0625-8
 C2H4O,ethylen-o 5.956-15
 CH3CHO,ethanal  1.837-10
 CH3COOH         1.192-12
 C2H5            1.123-11
 C2H6            6.172-10
 C2H5OH          6.935-14
 CH3OCH3         3.711-16
 C2O             1.994-12
 C3H3,1-propynl  2.063-16
 C3H3,2-propynl  2.453-12
 C3H4,allene     3.545-12
 C3H4,propyne    9.221-12
 C3H4,cyclo-     8.182-15
 C3H5,allyl      1.121-13
 C3H6,propylene  1.604-12
 C3H6,cyclo-     4.388-15
 C3H6O,acetone   2.555-15
 C3H6O,propanal  1.276-15
 C3H8            4.903-15
 C3O2            1.503-11
 C4H2,butadiyne  3.345-14
 C4H6,butadiene  1.209-15
 *H              6.0973-5
 HCO             2.1546-7
 HCCO            1.537-11
 HO2             8.587-16
 *H2             5.7911-1
 HCHO,formaldehy 1.4081-6
 HCOOH           5.0721-8
 H2O             2.0678-2
 H2O2            2.760-14
 *O              1.123-11
 *OH             1.5777-7
 *O2             1.778-13

  * THERMODYNAMIC PROPERTIES FITTED TO 20000.K









         THERMODYNAMIC EQUILIBRIUM COMBUSTION PROPERTIES AT ASSIGNED

                                     VOLUME

 CASE =                

             REACTANT                       MOLES         ENERGY      TEMP
                                                         KJ/KG-MOL      K
 FUEL        C2H6                         1.0000000    -86248.563    300.000
 OXIDANT     O2                           3.5000000     -2439.995    300.000

 O/F=    1.09548  %FUEL= 47.721832  R,EQ.RATIO= 3.400000  PHI,EQ.RATIO= 3.400000

 THERMODYNAMIC PROPERTIES

 P, BAR            13.860
 T, K             1678.28
 RHO, KG/CU M    1.2541 0
 H, KJ/KG         -303.52
 U, KJ/KG        -1408.69
 G, KJ/KG        -26329.1
 S, KJ/(KG)(K)    15.5073

 M, (1/n)          12.626
 (dLV/dLP)t      -1.00358
 (dLV/dLT)p        1.0294
 Cp, KJ/(KG)(K)    2.8896
 GAMMAs            1.3122
 SON VEL,M/SEC     1204.2

 MOLE FRACTIONS

 *CH             6.058-15
 CH2             4.104-11
 CH3             8.3420-7
 CH2OH           4.946-11
 CH3O            3.038-12
 CH4             9.6960-4
 CH3OH           4.7265-9
 *CO             3.9764-1
 *CO2            2.1533-3
 COOH            3.495-10
 C2H             2.091-13
 C2H2,acetylene  9.8834-7
 C2H2,vinylidene 1.148-11
 CH2CO,ketene    1.5828-7
 O(CH)2O         3.208-13
 C2H3,vinyl      1.011-10
 CH3CO,acetyl    5.302-11
 C2H4            4.7250-7
 C2H4O,ethylen-o 1.519-14
 CH3CHO,ethanal  7.553-10
 CH3COOH         2.530-12
 C2H5            7.954-11
 C2H6            1.0045-8
 C2H5OH          3.724-13
 CH3OCH3         1.628-15
 C2O             1.240-12
 C3H3,1-propynl  1.255-15
 C3H3,2-propynl  2.350-11
 C3H4,allene     6.091-11
 C3H4,propyne    1.631-10
 C3H4,cyclo-     9.888-14
 C3H5,allyl      2.116-12
 C3H6,propylene  5.596-11
 C3H6,cyclo-     1.322-13
 C3H6O,acetone   4.267-14
 C3H6O,propanal  1.824-14
 C3H7,n-propyl   2.159-15
 C3H7,i-propyl   2.026-15
 C3H8            2.820-13
 C3O2            2.682-11
 C4H2,butadiyne  6.434-13
 C4H6,butadiene  9.180-14
 C4H6,1butyne    4.954-15
 C4H6,2butyne    5.084-15
 C4H6,cyclo-     1.324-16
 C4H8,1-butene   1.460-15
 C4H8,cis2-buten 6.583-16
 C4H8,tr2-butene 7.392-16
 C4H8,isobutene  8.601-16
 C5H6,1,3cyclo-  3.051-16
 C6H6            4.357-16
 *H              2.4731-5
 HCO             1.1429-7
 HCCO            1.528-11
 *H2             5.8860-1
 HCHO,formaldehy 1.3952-6
 HCOOH           2.6244-8
 H2O             1.0608-2
 H2O2            1.614-15
 *O              7.341-13
 *OH             2.5170-8
 *O2             5.962-15

  * THERMODYNAMIC PROPERTIES FITTED TO 20000.K









         THERMODYNAMIC EQUILIBRIUM COMBUSTION PROPERTIES AT ASSIGNED

                                     VOLUME

 CASE =                

             REACTANT                       MOLES         ENERGY      TEMP
                                                         KJ/KG-MOL      K
 FUEL        C2H6                         1.0000000    -86248.563    300.000
 OXIDANT     O2                           3.5000000     -2439.995    300.000

 O/F=    1.06418  %FUEL= 48.445443  R,EQ.RATIO= 3.500000  PHI,EQ.RATIO= 3.500000

 THERMODYNAMIC PROPERTIES

 P, BAR            13.341
 T, K             1604.08
 RHO, KG/CU M    1.2541 0
 H, KJ/KG         -365.12
 U, KJ/KG        -1428.90
 G, KJ/KG        -25222.9
 S, KJ/(KG)(K)    15.4966

 M, (1/n)          12.538
 (dLV/dLP)t      -1.00969
 (dLV/dLT)p        1.0835
 Cp, KJ/(KG)(K)    3.2122
 GAMMAs            1.3032
 SON VEL,M/SEC     1177.4

 MOLE FRACTIONS

 *CH             3.389-15
 CH2             4.549-11
 CH3             2.0667-6
 CH2OH           3.540-11
 CH3O            1.916-12
 CH4             4.9784-3
 CH3OH           6.2436-9
 *CO             3.9807-1
 *CO2            9.1172-4
 COOH            8.072-11
 C2H             5.076-13
 C2H2,acetylene  7.3042-6
 C2H2,vinylidene 4.658-11
 CH2CO,ketene    4.9544-7
 O(CH)2O         2.828-13
 C2H3,vinyl      5.969-10
 CH3CO,acetyl    1.438-10
 C2H4            6.2786-6
 C2H4O,ethylen-o 4.750-14
 CH3CHO,ethanal  3.4594-9
 CH3COOH         4.548-12
 C2H5            8.431-10
 C2H6            2.0685-7
 C2H5OH          2.097-12
 CH3OCH3         7.791-15
 C2O             1.270-12
 C3H3,1-propynl  1.780-14
 C3H3,2-propynl  4.802-10
 C3H4,allene     1.9820-9
 C3H4,propyne    5.4317-9
 C3H4,cyclo-     2.426-12
 C3H5,allyl      7.397-11
 C3H6,propylene  3.1875-9
 C3H6,cyclo-     6.706-12
 C3H6O,acetone   8.955-13
 C3H6O,propanal  3.381-13
 C3H7,n-propyl   9.306-14
 C3H7,i-propyl   9.095-14
 C3H8            2.381-11
 C3H8O,1propanol 2.191-16
 C3H8O,2propanol 2.462-16
 C3O2            6.388-11
 C4H2,butadiyne  3.466-11
 C4H4,1,3-cyclo- 6.435-16
 C4H6,butadiene  1.468-11
 C4H6,1butyne    6.747-13
 C4H6,2butyne    7.502-13
 C4H6,cyclo-     1.865-14
 C4H8,1-butene   3.413-13
 C4H8,cis2-buten 1.597-13
 C4H8,tr2-butene 1.794-13
 C4H8,isobutene  2.126-13
 C4H8,cyclo-     1.139-16
 C4H10,n-butane  2.790-15
 C4H10,isobutane 1.006-15
 C5H6,1,3cyclo-  1.803-13
 C5H8,cyclo-     7.612-16
 C6H2            1.759-16
 C6H5,phenyl     1.298-16
 C6H6            1.208-12
 C7H8            8.916-16
 *H              1.1971-5
 HCO             6.8293-8
 HCCO            2.268-11
 *H2             5.9191-1
 HCHO,formaldehy 1.3713-6
 HCOOH           1.0214-8
 H2O             4.0969-3
 *O              5.489-14
 *OH             3.8274-9
 *O2             1.734-16

  * THERMODYNAMIC PROPERTIES FITTED TO 20000.K









         THERMODYNAMIC EQUILIBRIUM COMBUSTION PROPERTIES AT ASSIGNED

                                     VOLUME

 CASE =                

             REACTANT                       MOLES         ENERGY      TEMP
                                                         KJ/KG-MOL      K
 FUEL        C2H6                         1.0000000    -86248.563    300.000
 OXIDANT     O2                           3.5000000     -2439.995    300.000

 O/F=    1.03462  %FUEL= 49.149296  R,EQ.RATIO= 3.600000  PHI,EQ.RATIO= 3.600000

 THERMODYNAMIC PROPERTIES

 P, BAR            13.016
 T, K             1564.58
 RHO, KG/CU M    1.2541 0
 H, KJ/KG         -410.66
 U, KJ/KG        -1448.55
 G, KJ/KG        -24624.9
 S, KJ/(KG)(K)    15.4765

 M, (1/n)          12.534
 MW, MOL WT        12.452
 (dLV/dLP)t      -1.01238
 (dLV/dLT)p        1.1011
 Cp, KJ/(KG)(K)    3.3301
 GAMMAs            1.2972
 SON VEL,M/SEC     1160.3

 MOLE FRACTIONS

 *CH             1.694-15
 CH2             3.354-11
 CH3             2.4082-6
 CH2OH           2.857-11
 CH3O            1.439-12
 CH4             8.7870-3
 CH3OH           7.1401-9
 *CO             3.9088-1
 *CO2            7.7120-4
 COOH            4.823-11
 C2H             4.109-13
 C2H2,acetylene  1.1146-5
 C2H2,vinylidene 5.045-11
 CH2CO,ketene    6.5142-7
 O(CH)2O         2.539-13
 C2H3,vinyl      8.000-10
 CH3CO,acetyl    1.740-10
 C2H4            1.3352-5
 C2H4O,ethylen-o 6.226-14
 CH3CHO,ethanal  5.6367-9
 CH3COOH         6.119-12
 C2H5            1.5733-9
 C2H6            5.6329-7
 C2H5OH          3.833-12
 CH3OCH3         1.298-14
 C2O             8.846-13
 C3H3,1-propynl  2.756-14
 C3H3,2-propynl  9.157-10
 C3H4,allene     4.9231-9
 C3H4,propyne    1.3670-8
 C3H4,cyclo-     5.129-12
 C3H5,allyl      1.912-10
 C3H6,propylene  1.0869-8
 C3H6,cyclo-     2.140-11
 C3H6O,acetone   2.430-12
 C3H6O,propanal  8.550-13
 C3H7,n-propyl   2.702-13
 C3H7,i-propyl   2.702-13
 C3H8            1.013-10
 C3H8O,1propanol 6.286-16
 C3H8O,2propanol 7.235-16
 C3O2            7.107-11
 C4H2,butadiyne  8.066-11
 C4H4,1,3-cyclo- 1.694-15
 C4H6,butadiene  6.323-11
 C4H6,1butyne    2.651-12
 C4H6,2butyne    3.085-12
 C4H6,cyclo-     7.472-14
 C4H8,1-butene   1.820-12
 C4H8,cis2-buten 8.699-13
 C4H8,tr2-butene 9.773-13
 C4H8,isobutene  1.170-12
 C4H8,cyclo-     5.766-16
 C4H9,n-butyl    1.257-16
 C4H10,n-butane  1.852-14
 C4H10,isobutane 6.788-15
 C5H6,1,3cyclo-  1.148-12
 C5H8,cyclo-     5.809-15
 C5H10,1-pentene 2.579-16
 C6H2            6.256-16
 C6H5,phenyl     8.683-16
 C6H6            1.301-11
 C6H5OH,phenol   6.756-16
 C7H7,benzyl     2.900-16
 C7H8            1.543-14
 C8H8,styrene    1.521-16
 *H              7.8723-6
 HCO             4.9873-8
 HCCO            1.950-11
 *H2             5.8964-1
 HCHO,formaldehy 1.3286-6
 HCOOH           8.2139-9
 H2O             3.3245-3
 *O              1.751-14
 *OH             1.8274-9
 C(gr)           6.5626-3

  * THERMODYNAMIC PROPERTIES FITTED TO 20000.K



