
 *******************************************************************************

         NASA-GLENN CHEMICAL EQUILIBRIUM PROGRAM CEA2, MAY 21, 2004
                   BY  BONNIE MCBRIDE AND SANFORD GORDON
      REFS: NASA RP-1311, PART I, 1994 AND NASA RP-1311, PART II, 1996

 *******************************************************************************



 problem    phi,eq.ratio=0.50,0.6,0.7,0.8,0.9,1,1.1,1.2,1.3,1.4,1.5,1.6,1.7,1.8,1
 .9,2,
     uv   rho,kg/m**3=1.1623,  t,k=3800
 react
   fuel=C2H6 moles=1  t,k=300
   oxid=O2 moles=3.5  t,k=300
   oxid=N2 moles=13.1667  t,k=300
 output  short   trace=1e-16
 end




         THERMODYNAMIC EQUILIBRIUM COMBUSTION PROPERTIES AT ASSIGNED

                                     VOLUME

 CASE =                

             REACTANT                       MOLES         ENERGY      TEMP
                                                         KJ/KG-MOL      K
 FUEL        C2H6                         1.0000000    -86248.563    300.000
 OXIDANT     O2                           3.5000000     -2439.995    300.000
 OXIDANT     N2                          13.1667000     -2440.472    300.000

 O/F=   31.98239  %FUEL=  3.031921  R,EQ.RATIO= 0.500000  PHI,EQ.RATIO= 0.500000

 THERMODYNAMIC PROPERTIES

 P, BAR            6.2243
 T, K             1833.49
 RHO, KG/CU M    1.1623 0
 H, KJ/KG          366.52
 U, KJ/KG         -168.99
 G, KJ/KG        -15514.7
 S, KJ/(KG)(K)     8.6617

 M, (1/n)          28.467
 (dLV/dLP)t      -1.00005
 (dLV/dLT)p        1.0017
 Cp, KJ/(KG)(K)    1.4044
 GAMMAs            1.2636
 SON VEL,M/SEC      822.6

 MOLE FRACTIONS

 *CO             2.1128-5
 *CO2            5.7387-2
 COOH            6.775-11
 *H              5.3590-7
 HCO             3.748-14
 HNCO            1.853-13
 HNO             7.2706-9
 HNO2            2.5673-7
 HNO3            1.665-10
 HO2             1.1797-6
 *H2             8.0032-6
 HCHO,formaldehy 4.425-16
 HCOOH           4.721-12
 H2O             8.5869-2
 H2O2            6.9176-8
 *N              2.285-11
 NCO             4.882-15
 *NH             1.834-12
 NH2             7.401-13
 NH3             3.360-12
 NH2OH           3.818-15
 *NO             3.1186-3
 NO2             1.2599-5
 NO3             2.434-11
 *N2             7.5431-1
 N2O             4.3680-7
 N2O3            5.662-13
 N3              2.817-16
 *O              2.0916-5
 *OH             4.6803-4
 *O2             9.8779-2
 O3              2.0499-9

  * THERMODYNAMIC PROPERTIES FITTED TO 20000.K









         THERMODYNAMIC EQUILIBRIUM COMBUSTION PROPERTIES AT ASSIGNED

                                     VOLUME

 CASE =                

             REACTANT                       MOLES         ENERGY      TEMP
                                                         KJ/KG-MOL      K
 FUEL        C2H6                         1.0000000    -86248.563    300.000
 OXIDANT     O2                           3.5000000     -2439.995    300.000
 OXIDANT     N2                          13.1667000     -2440.472    300.000

 O/F=   26.65199  %FUEL=  3.616376  R,EQ.RATIO= 0.600000  PHI,EQ.RATIO= 0.600000

 THERMODYNAMIC PROPERTIES

 P, BAR            6.9958
 T, K             2054.73
 RHO, KG/CU M    1.1623 0
 H, KJ/KG          416.63
 U, KJ/KG         -185.26
 G, KJ/KG        -17737.2
 S, KJ/(KG)(K)     8.8351

 M, (1/n)          28.384
 (dLV/dLP)t      -1.00019
 (dLV/dLT)p        1.0062
 Cp, KJ/(KG)(K)    1.4980
 GAMMAs            1.2466
 SON VEL,M/SEC      866.2

 MOLE FRACTIONS

 *CO             1.9136-4
 *CO2            6.8083-2
 COOH            8.188-10
 *H              6.8492-6
 HCN             1.019-14
 HCO             2.861-12
 HNC             5.682-16
 HNCO            4.964-12
 HNO             3.7736-8
 HNO2            3.5753-7
 HNO3            1.521-10
 HO2             2.8078-6
 *H2             5.9775-5
 HCHO,formaldehy 3.297-14
 HCOOH           5.336-11
 H2O             1.0162-1
 H2O2            1.6638-7
 *N              6.353-10
 NCO             2.738-13
 *NH             6.209-11
 NH2             2.139-11
 NH3             5.175-11
 NH2OH           5.719-14
 *NO             5.2181-3
 NO2             1.3278-5
 NO3             3.287-11
 *N2             7.4651-1
 N2H2            1.300-15
 N2O             7.5498-7
 N2O3            9.276-13
 N3              6.684-15
 N3H             9.611-16
 *O              1.0544-4
 *OH             1.4443-3
 *O2             7.6742-2
 O3              4.2195-9

  * THERMODYNAMIC PROPERTIES FITTED TO 20000.K









         THERMODYNAMIC EQUILIBRIUM COMBUSTION PROPERTIES AT ASSIGNED

                                     VOLUME

 CASE =                

             REACTANT                       MOLES         ENERGY      TEMP
                                                         KJ/KG-MOL      K
 FUEL        C2H6                         1.0000000    -86248.563    300.000
 OXIDANT     O2                           3.5000000     -2439.995    300.000
 OXIDANT     N2                          13.1667000     -2440.472    300.000

 O/F=   22.84456  %FUEL=  4.193828  R,EQ.RATIO= 0.700000  PHI,EQ.RATIO= 0.700000

 THERMODYNAMIC PROPERTIES

 P, BAR            7.6926
 T, K             2251.32
 RHO, KG/CU M    1.1623 0
 H, KJ/KG          460.51
 U, KJ/KG         -201.33
 G, KJ/KG        -19781.3
 S, KJ/(KG)(K)     8.9911

 M, (1/n)          28.283
 (dLV/dLP)t      -1.00062
 (dLV/dLT)p        1.0187
 Cp, KJ/(KG)(K)    1.6432
 GAMMAs            1.2271
 SON VEL,M/SEC      901.2

 MOLE FRACTIONS

 *CN             3.166-15
 *CO             1.0132-3
 *CO2            7.7880-2
 COOH            5.2657-9
 *H              4.5058-5
 HCN             5.102-13
 HCO             7.434-11
 HNC             3.906-14
 HNCO            6.094-11
 HNO             1.2195-7
 HNO2            4.1573-7
 HNO3            1.224-10
 HO2             4.7741-6
 *H2             2.7819-4
 HCHO,formaldehy 8.853-13
 HCOOH           3.450-10
 H2O             1.1646-1
 H2O2            2.9892-7
 *N              7.0213-9
 NCO             5.478-12
 *NH             8.269-10
 NH2             2.664-10
 NH3             4.289-10
 NH2OH           4.385-13
 *NO             7.0333-3
 NO2             1.2013-5
 NO3             3.343-11
 *N2             7.3845-1
 N2H2            1.979-14
 N2O             1.0528-6
 N2O3            1.091-12
 N3              6.655-14
 N3H             1.035-14
 *O              3.1528-4
 *OH             3.1613-3
 *O2             5.5346-2
 O3              5.8341-9

  * THERMODYNAMIC PROPERTIES FITTED TO 20000.K









         THERMODYNAMIC EQUILIBRIUM COMBUSTION PROPERTIES AT ASSIGNED

                                     VOLUME

 CASE =                

             REACTANT                       MOLES         ENERGY      TEMP
                                                         KJ/KG-MOL      K
 FUEL        C2H6                         1.0000000    -86248.563    300.000
 OXIDANT     O2                           3.5000000     -2439.995    300.000
 OXIDANT     N2                          13.1667000     -2440.472    300.000

 O/F=   19.98899  %FUEL=  4.764402  R,EQ.RATIO= 0.800000  PHI,EQ.RATIO= 0.800000

 THERMODYNAMIC PROPERTIES

 P, BAR            8.2999
 T, K             2417.15
 RHO, KG/CU M    1.1623 0
 H, KJ/KG          496.87
 U, KJ/KG         -217.22
 G, KJ/KG        -21579.5
 S, KJ/(KG)(K)     9.1332

 M, (1/n)          28.144
 (dLV/dLP)t      -1.00169
 (dLV/dLT)p        1.0467
 Cp, KJ/(KG)(K)    1.8889
 GAMMAs            1.2043
 SON VEL,M/SEC      927.4

 MOLE FRACTIONS

 *CN             1.072-13
 *CO             3.6650-3
 *CO2            8.5523-2
 COOH            2.1166-8
 *H              1.8352-4
 HCN             1.087-11
 HCO             8.936-10
 HNC             1.044-12
 HNCO            4.301-10
 HNO             2.7242-7
 HNO2            4.0385-7
 HNO3            8.309-11
 HO2             6.0632-6
 *H2             9.3599-4
 HCHO,formaldehy 1.159-11
 HCOOH           1.4833-9
 H2O             1.3010-1
 H2O2            4.1925-7
 *N              3.9162-8
 NCO             5.172-11
 *NH             5.5868-9
 NH2             1.8210-9
 NH3             2.3255-9
 NH2OH           2.053-12
 *NO             7.8599-3
 NO2             9.1716-6
 NO3             2.526-11
 *N2             7.3001-1
 N2H2            1.580-13
 N2O             1.2135-6
 N2O3            9.178-13
 N3              3.466-13
 N3H             6.054-14
 *O              6.2342-4
 *OH             5.2927-3
 *O2             3.5786-2
 O3              5.5199-9

  * THERMODYNAMIC PROPERTIES FITTED TO 20000.K









         THERMODYNAMIC EQUILIBRIUM COMBUSTION PROPERTIES AT ASSIGNED

                                     VOLUME

 CASE =                

             REACTANT                       MOLES         ENERGY      TEMP
                                                         KJ/KG-MOL      K
 FUEL        C2H6                         1.0000000    -86248.563    300.000
 OXIDANT     O2                           3.5000000     -2439.995    300.000
 OXIDANT     N2                          13.1667000     -2440.472    300.000

 O/F=   17.76799  %FUEL=  5.328220  R,EQ.RATIO= 0.900000  PHI,EQ.RATIO= 0.900000

 THERMODYNAMIC PROPERTIES

 P, BAR            8.7950
 T, K             2543.20
 RHO, KG/CU M    1.1623 0
 H, KJ/KG          523.77
 U, KJ/KG         -232.91
 G, KJ/KG        -23036.4
 S, KJ/(KG)(K)     9.2640

 M, (1/n)          27.945
 (dLV/dLP)t      -1.00355
 (dLV/dLT)p        1.0930
 Cp, KJ/(KG)(K)    2.2523
 GAMMAs            1.1824
 SON VEL,M/SEC      945.9

 MOLE FRACTIONS

 *C              1.127-15
 *CH             1.822-16
 CH2             3.676-16
 CH3             9.460-16
 CH2OH           1.454-15
 CH3O            2.453-16
 CH4             2.637-16
 *CN             1.509-12
 *CO             9.8566-3
 *CO2            8.9179-2
 COOH            5.7517-8
 C2O             1.204-16
 *H              5.1092-4
 HCN             1.219-10
 HCO             5.8715-9
 HNC             1.364-11
 HNCO            1.9796-9
 HNO             4.3848-7
 HNO2            3.1976-7
 HNO3            4.465-11
 HO2             5.7377-6
 *H2             2.4912-3
 HCHO,formaldehy 8.793-11
 HCOOH           4.5993-9
 H2O             1.4231-1
 H2O2            4.6171-7
 *N              1.2387-7
 NCO             2.661-10
 *NH             2.1866-8
 NH2             7.8234-9
 NH3             9.3090-9
 NH2OH           6.443-12
 *NO             7.2663-3
 NO2             5.6693-6
 NO3             1.340-11
 *N2             7.2079-1
 N2H2            7.580-13
 NH2NO2          1.347-16
 N2O             1.1493-6
 N2O3            5.242-13
 N3              1.050-12
 N3H             2.160-13
 *O              8.4595-4
 *OH             6.9816-3
 *O2             1.9746-2
 O3              3.4210-9

  * THERMODYNAMIC PROPERTIES FITTED TO 20000.K









         THERMODYNAMIC EQUILIBRIUM COMBUSTION PROPERTIES AT ASSIGNED

                                     VOLUME

 CASE =                

             REACTANT                       MOLES         ENERGY      TEMP
                                                         KJ/KG-MOL      K
 FUEL        C2H6                         1.0000000    -86248.563    300.000
 OXIDANT     O2                           3.5000000     -2439.995    300.000
 OXIDANT     N2                          13.1667000     -2440.472    300.000

 O/F=   15.99119  %FUEL=  5.885402  R,EQ.RATIO= 1.000000  PHI,EQ.RATIO= 1.000000

 THERMODYNAMIC PROPERTIES

 P, BAR            9.1540
 T, K             2620.52
 RHO, KG/CU M    1.1623 0
 H, KJ/KG          539.15
 U, KJ/KG         -248.42
 G, KJ/KG        -24054.8
 S, KJ/(KG)(K)     9.3851

 M, (1/n)          27.665
 (dLV/dLP)t      -1.00518
 (dLV/dLT)p        1.1325
 Cp, KJ/(KG)(K)    2.5569
 GAMMAs            1.1704
 SON VEL,M/SEC      960.1

 MOLE FRACTIONS

 *C              1.145-14
 *CH             2.387-15
 CH2             5.489-15
 CH3             1.538-14
 CH2OH           1.266-14
 CH3O            2.275-15
 CH4             4.877-15
 CH3OH           7.655-16
 *CN             1.044-11
 *CO             2.0987-2
 *CO2            8.7311-2
 COOH            1.1072-7
 CH2CO,ketene    1.911-16
 HO(CO)2OH       1.096-16
 OCCN            3.781-16
 C2O             1.764-15
 *H              1.0358-3
 HCN             8.485-10
 HCO             2.3704-8
 HNC             1.035-10
 HNCO            6.5375-9
 HNO             5.1251-7
 HNO2            1.9632-7
 HNO3            1.730-11
 HO2             3.8958-6
 *H2             5.6278-3
 HCHO,formaldehy 4.406-10
 HCOOH           1.0918-8
 H2O             1.5266-1
 H2O2            3.9064-7
 *N              2.3598-7
 NCO             8.183-10
 *NH             5.3727-8
 NH2             2.3177-8
 NH3             3.0308-8
 NH2OH           1.437-11
 *NO             5.4185-3
 NO2             2.6452-6
 NO3             4.506-12
 *N2             7.1025-1
 NCN             5.413-16
 N2H2            2.394-12
 NH2NO2          1.404-16
 N2O             8.6953-7
 N2O3            1.838-13
 N3              1.953-12
 N3H             5.038-13
 *O              7.8418-4
 *OH             7.2803-3
 *O2             8.6384-3
 O3              1.2595-9

  * THERMODYNAMIC PROPERTIES FITTED TO 20000.K









         THERMODYNAMIC EQUILIBRIUM COMBUSTION PROPERTIES AT ASSIGNED

                                     VOLUME

 CASE =                

             REACTANT                       MOLES         ENERGY      TEMP
                                                         KJ/KG-MOL      K
 FUEL        C2H6                         1.0000000    -86248.563    300.000
 OXIDANT     O2                           3.5000000     -2439.995    300.000
 OXIDANT     N2                          13.1667000     -2440.472    300.000

 O/F=   14.53745  %FUEL=  6.436063  R,EQ.RATIO= 1.100000  PHI,EQ.RATIO= 1.100000

 THERMODYNAMIC PROPERTIES

 P, BAR            9.3541
 T, K             2642.01
 RHO, KG/CU M    1.1623 0
 H, KJ/KG          541.04
 U, KJ/KG         -263.75
 G, KJ/KG        -24551.4
 S, KJ/(KG)(K)     9.4975

 M, (1/n)          27.295
 (dLV/dLP)t      -1.00444
 (dLV/dLT)p        1.1135
 Cp, KJ/(KG)(K)    2.4315
 GAMMAs            1.1777
 SON VEL,M/SEC      973.6

 MOLE FRACTIONS

 *C              4.849-14
 *CH             1.386-14
 CH2             4.226-14
 CH3             1.550-13
 CH2OH           6.856-14
 CH3O            1.253-14
 CH4             6.521-14
 CH3OH           5.557-15
 *CN             3.982-11
 *CO             3.7145-2
 *CO2            7.9702-2
 COOH            1.5509-7
 CH2CO,ketene    2.365-15
 HO(CO)2OH       1.976-16
 OCCN            2.509-15
 C2O             1.205-14
 *H              1.5850-3
 HCN             4.1531-9
 HCO             6.3754-8
 HCCO            7.946-16
 HNC             5.182-10
 HNCO            1.6640-8
 HNO             4.2915-7
 HNO2            8.7839-8
 HNO3            4.345-12
 HO2             1.7932-6
 *H2             1.1351-2
 HCHO,formaldehy 1.6077-9
 HCOOH           2.0714-8
 H2O             1.6017-1
 H2O2            2.4420-7
 *N              2.7696-7
 NCO             1.5958-9
 *NH             8.6430-8
 NH2             5.0195-8
 NH3             8.6200-8
 NH2OH           2.346-11
 *NO             3.1411-3
 NO2             8.5880-7
 NO3             8.508-13
 *N2             6.9774-1
 NCN             2.128-15
 N2H2            5.268-12
 N2O             5.0536-7
 N2O3            3.505-14
 N3              2.271-12
 N3H             7.970-13
 *O              4.8256-4
 *OH             5.9200-3
 *O2             2.7605-3
 O3              2.441-10

  * THERMODYNAMIC PROPERTIES FITTED TO 20000.K









         THERMODYNAMIC EQUILIBRIUM COMBUSTION PROPERTIES AT ASSIGNED

                                     VOLUME

 CASE =                

             REACTANT                       MOLES         ENERGY      TEMP
                                                         KJ/KG-MOL      K
 FUEL        C2H6                         1.0000000    -86248.563    300.000
 OXIDANT     O2                           3.5000000     -2439.995    300.000
 OXIDANT     N2                          13.1667000     -2440.472    300.000

 O/F=   13.32599  %FUEL=  6.980318  R,EQ.RATIO= 1.200000  PHI,EQ.RATIO= 1.200000

 THERMODYNAMIC PROPERTIES

 P, BAR            9.3985
 T, K             2611.20
 RHO, KG/CU M    1.1623 0
 H, KJ/KG          529.71
 U, KJ/KG         -278.90
 G, KJ/KG        -24542.1
 S, KJ/(KG)(K)     9.6016

 M, (1/n)          26.850
 (dLV/dLP)t      -1.00251
 (dLV/dLT)p        1.0644
 Cp, KJ/(KG)(K)    2.0706
 GAMMAs            1.2004
 SON VEL,M/SEC      985.2

 MOLE FRACTIONS

 *C              9.496-14
 *CH             3.916-14
 CH2             1.807-13
 CH3             1.021-12
 CH2OH           2.427-13
 CH3O            4.330-14
 CH4             6.503-13
 CH3OH           2.933-14
 *CN             9.012-11
 *CO             5.6089-2
 *CO2            6.8570-2
 COOH            1.6370-7
 C2H2,acetylene  5.410-16
 CH2CO,ketene    1.818-14
 O(CH)2O         1.896-16
 HO(CO)2OH       2.575-16
 OCCN            9.112-15
 C2N2            1.550-16
 C2O             4.222-14
 C3O2            1.063-16
 *H              1.8834-3
 HCN             1.4921-8
 HCO             1.1977-7
 HCCO            4.004-15
 HNC             1.8010-9
 HNCO            3.3658-8
 HNO             2.6540-7
 HNO2            2.9413-8
 HNO3            7.338-13
 HO2             5.7957-7
 *H2             2.0593-2
 HCHO,formaldehy 4.4230-9
 HCOOH           3.2096-8
 H2O             1.6353-1
 H2O2            1.1542-7
 *N              2.1108-7
 NCO             2.0844-9
 *NH             9.5061-8
 NH2             8.1759-8
 NH3             2.1549-7
 NH2OH           2.866-11
 *NO             1.4515-3
 NO2             2.0083-7
 NO3             9.536-14
 *N2             6.8317-1
 NCN             4.588-15
 N2H2            8.341-12
 N2H4            2.509-16
 N2O             2.3141-7
 N2O3            3.852-15
 N3              1.735-12
 N3H             8.882-13
 *O              2.0574-4
 *OH             3.8394-3
 *O2             6.6398-4
 O3              2.650-11

  * THERMODYNAMIC PROPERTIES FITTED TO 20000.K









         THERMODYNAMIC EQUILIBRIUM COMBUSTION PROPERTIES AT ASSIGNED

                                     VOLUME

 CASE =                

             REACTANT                       MOLES         ENERGY      TEMP
                                                         KJ/KG-MOL      K
 FUEL        C2H6                         1.0000000    -86248.563    300.000
 OXIDANT     O2                           3.5000000     -2439.995    300.000
 OXIDANT     N2                          13.1667000     -2440.472    300.000

 O/F=   12.30092  %FUEL=  7.518278  R,EQ.RATIO= 1.300000  PHI,EQ.RATIO= 1.300000

 THERMODYNAMIC PROPERTIES

 P, BAR            9.3404
 T, K             2548.72
 RHO, KG/CU M    1.1623 0
 H, KJ/KG          509.74
 U, KJ/KG         -293.88
 G, KJ/KG        -24208.7
 S, KJ/(KG)(K)     9.6984

 M, (1/n)          26.370
 (dLV/dLP)t      -1.00136
 (dLV/dLT)p        1.0348
 Cp, KJ/(KG)(K)    1.8492
 GAMMAs            1.2213
 SON VEL,M/SEC      990.7

 MOLE FRACTIONS

 *C              1.056-13
 *CH             6.341-14
 CH2             4.712-13
 CH3             4.451-12
 CH2OH           5.910-13
 CH3O            1.001-13
 CH4             4.570-12
 CH3OH           1.114-13
 *CN             1.361-10
 *CO             7.4391-2
 *CO2            5.7477-2
 COOH            1.4212-7
 C2H2,acetylene  4.175-15
 CH2CO,ketene    8.927-14
 O(CH)2O         5.131-16
 HO(CO)2OH       2.658-16
 OCCN            2.041-14
 C2N2            6.520-16
 C2O             8.755-14
 C3O2            3.886-16
 *H              1.8539-3
 HCN             4.0125-8
 HCO             1.6944-7
 HCCO            1.201-14
 HNC             4.5175-9
 HNCO            5.5771-8
 HNO             1.3687-7
 HNO2            8.6075-9
 HNO3            1.051-13
 HO2             1.5704-7
 *H2             3.3241-2
 HCHO,formaldehy 9.4046-9
 HCOOH           4.2100-8
 H2O             1.6254-1
 H2O2            4.6853-8
 *N              1.2151-7
 NCO             2.0440-9
 *NH             7.9730-8
 NH2             1.0551-7
 NH3             4.6116-7
 NH2OH           2.807-11
 *NO             6.0159-4
 NO2             4.0999-8
 NO3             8.554-15
 *N2             6.6749-1
 NCN             6.273-15
 N2H2            1.018-11
 N2H4            5.657-16
 N2O             9.4371-8
 N2O3            3.325-16
 N3              1.010-12
 N3H             7.700-13
 *O              7.1826-5
 *OH             2.1813-3
 *O2             1.4345-4
 O3              2.218-12

  * THERMODYNAMIC PROPERTIES FITTED TO 20000.K









         THERMODYNAMIC EQUILIBRIUM COMBUSTION PROPERTIES AT ASSIGNED

                                     VOLUME

 CASE =                

             REACTANT                       MOLES         ENERGY      TEMP
                                                         KJ/KG-MOL      K
 FUEL        C2H6                         1.0000000    -86248.563    300.000
 OXIDANT     O2                           3.5000000     -2439.995    300.000
 OXIDANT     N2                          13.1667000     -2440.472    300.000

 O/F=   11.42228  %FUEL=  8.050051  R,EQ.RATIO= 1.400000  PHI,EQ.RATIO= 1.400000

 THERMODYNAMIC PROPERTIES

 P, BAR            9.2336
 T, K             2473.71
 RHO, KG/CU M    1.1623 0
 H, KJ/KG          485.75
 U, KJ/KG         -308.68
 G, KJ/KG        -23728.2
 S, KJ/(KG)(K)     9.7885

 M, (1/n)          25.890
 (dLV/dLP)t      -1.00081
 (dLV/dLT)p        1.0206
 Cp, KJ/(KG)(K)    1.7476
 GAMMAs            1.2355
 SON VEL,M/SEC      990.7

 MOLE FRACTIONS

 *C              8.295-14
 *CH             7.135-14
 CH2             8.619-13
 CH3             1.388-11
 CH2OH           1.089-12
 CH3O            1.731-13
 CH4             2.325-11
 CH3OH           3.210-13
 *CN             1.578-10
 *CO             9.0355-2
 *CO2            4.8269-2
 COOH            1.1093-7
 C2H2,acetylene  2.070-14
 CH2CO,ketene    3.085-13
 O(CH)2O         1.031-15
 HO(CO)2OH       2.407-16
 OCCN            3.302-14
 C2N2            1.899-15
 C2O             1.284-13
 C3O2            9.901-16
 *H              1.6219-3
 HCN             8.5978-8
 HCO             1.9857-7
 HCCO            2.496-14
 HNC             8.8615-9
 HNCO            7.9970-8
 HNO             6.5354-8
 HNO2            2.4764-9
 HNO3            1.510-14
 HO2             4.0933-8
 *H2             4.8375-2
 HCHO,formaldehy 1.6429-8
 HCOOH           4.9313-8
 H2O             1.5816-1
 H2O2            1.8121-8
 *N              6.0645-8
 NCO             1.6957-9
 *NH             5.6986-8
 NH2             1.1575-7
 NH3             8.5413-7
 NH2OH           2.388-11
 *NO             2.4467-4
 NO2             8.4046-9
 NO3             7.647-16
 *N2             6.5174-1
 NCN             6.423-15
 N2H2            1.042-11
 N2H4            9.966-16
 N2O             3.7663-8
 N3              5.118-13
 N3H             5.754-13
 *O              2.3486-5
 *OH             1.1750-3
 *O2             3.1556-5
 O3              1.819-13

  * THERMODYNAMIC PROPERTIES FITTED TO 20000.K









         THERMODYNAMIC EQUILIBRIUM COMBUSTION PROPERTIES AT ASSIGNED

                                     VOLUME

 CASE =                

             REACTANT                       MOLES         ENERGY      TEMP
                                                         KJ/KG-MOL      K
 FUEL        C2H6                         1.0000000    -86248.563    300.000
 OXIDANT     O2                           3.5000000     -2439.995    300.000
 OXIDANT     N2                          13.1667000     -2440.472    300.000

 O/F=   10.66080  %FUEL=  8.575744  R,EQ.RATIO= 1.500000  PHI,EQ.RATIO= 1.500000

 THERMODYNAMIC PROPERTIES

 P, BAR            9.1044
 T, K             2395.06
 RHO, KG/CU M    1.1623 0
 H, KJ/KG          459.99
 U, KJ/KG         -323.32
 G, KJ/KG        -23186.4
 S, KJ/(KG)(K)     9.8730

 M, (1/n)          25.423
 (dLV/dLP)t      -1.00052
 (dLV/dLT)p        1.0132
 Cp, KJ/(KG)(K)    1.6997
 GAMMAs            1.2454
 SON VEL,M/SEC      987.7

 MOLE FRACTIONS

 *C              5.258-14
 *CH             6.348-14
 CH2             1.239-12
 CH3             3.402-11
 CH2OH           1.658-12
 CH3O            2.454-13
 CH4             9.260-11
 CH3OH           7.564-13
 *CN             1.545-10
 *CO             1.0392-1
 *CO2            4.1094-2
 COOH            8.1819-8
 C2H2,acetylene  7.506-14
 CH2CO,ketene    8.345-13
 O(CH)2O         1.700-15
 HO(CO)2OH       2.037-16
 CH3CO,acetyl    1.779-16
 OCCN            4.339-14
 C2N2            4.314-15
 C2O             1.510-13
 C3O2            1.997-15
 *H              1.3153-3
 HCN             1.5705-7
 HCO             2.0631-7
 HCCO            4.076-14
 HNC             1.4666-8
 HNCO            1.0419-7
 HNO             3.0166-8
 HNO2            7.248-10
 HNO3            2.277-15
 HO2             1.0718-8
 *H2             6.5034-2
 HCHO,formaldehy 2.5055-8
 HCOOH           5.3798-8
 H2O             1.5151-1
 H2O2            6.9272-9
 *N              2.7996-8
 NCO             1.2766-9
 *NH             3.6904-8
 NH2             1.1367-7
 NH3             1.4142-6
 NH2OH           1.856-11
 *NO             1.0033-4
 NO2             1.7926-9
 *N2             6.3639-1
 NCN             5.481-15
 N2H2            9.495-12
 N2H4            1.469-15
 N2O             1.5147-8
 N3              2.409-13
 N3H             3.925-13
 *O              7.5459-6
 *OH             6.1912-4
 *O2             7.2742-6
 O3              1.561-14

  * THERMODYNAMIC PROPERTIES FITTED TO 20000.K









         THERMODYNAMIC EQUILIBRIUM COMBUSTION PROPERTIES AT ASSIGNED

                                     VOLUME

 CASE =                

             REACTANT                       MOLES         ENERGY      TEMP
                                                         KJ/KG-MOL      K
 FUEL        C2H6                         1.0000000    -86248.563    300.000
 OXIDANT     O2                           3.5000000     -2439.995    300.000
 OXIDANT     N2                          13.1667000     -2440.472    300.000

 O/F=    9.99450  %FUEL=  9.095460  R,EQ.RATIO= 1.600000  PHI,EQ.RATIO= 1.600000

 THERMODYNAMIC PROPERTIES

 P, BAR            8.9629
 T, K             2316.10
 RHO, KG/CU M    1.1623 0
 H, KJ/KG          433.35
 U, KJ/KG         -337.78
 G, KJ/KG        -22617.3
 S, KJ/(KG)(K)     9.9523

 M, (1/n)          24.973
 (dLV/dLP)t      -1.00035
 (dLV/dLT)p        1.0088
 Cp, KJ/(KG)(K)    1.6758
 GAMMAs            1.2529
 SON VEL,M/SEC      982.9

 MOLE FRACTIONS

 *C              2.875-14
 *CH             4.795-14
 CH2             1.504-12
 CH3             7.031-11
 CH2OH           2.207-12
 CH3O            3.031-13
 CH4             3.101-10
 CH3OH           1.547-12
 *CN             1.348-10
 *CO             1.1551-1
 *CO2            3.5561-2
 COOH            5.8313-8
 C2H             1.272-16
 C2H2,acetylene  2.190-13
 CH2CO,ketene    1.910-12
 O(CH)2O         2.461-15
 HO(CO)2OH       1.664-16
 CH3CN           3.321-16
 CH3CO,acetyl    4.236-16
 C2H4            2.421-16
 OCCN            4.963-14
 C2N2            8.277-15
 C2O             1.533-13
 C3O2            3.462-15
 *H              1.0102-3
 HCN             2.5686-7
 HCO             1.9759-7
 HCCO            5.651-14
 HNC             2.1574-8
 HNCO            1.2738-7
 HNO             1.3620-8
 HNO2            2.155-10
 HNO3            3.570-16
 HO2             2.8244-9
 *H2             8.2472-2
 HCHO,formaldehy 3.4809-8
 HCOOH           5.6092-8
 H2O             1.4347-1
 H2O2            2.6313-9
 *N              1.2240-8
 NCO             9.022-10
 *NH             2.2277-8
 NH2             1.0303-7
 NH3             2.1566-6
 NH2OH           1.352-11
 *NO             4.1478-5
 NO2             3.950-10
 *N2             6.2160-1
 NCN             4.129-15
 N2H2            7.964-12
 N2H4            1.903-15
 N2O             6.1425-9
 N3              1.078-13
 N3H             2.510-13
 *O              2.4002-6
 *OH             3.2143-4
 *O2             1.7402-6
 O3              1.394-15

  * THERMODYNAMIC PROPERTIES FITTED TO 20000.K









         THERMODYNAMIC EQUILIBRIUM COMBUSTION PROPERTIES AT ASSIGNED

                                     VOLUME

 CASE =                

             REACTANT                       MOLES         ENERGY      TEMP
                                                         KJ/KG-MOL      K
 FUEL        C2H6                         1.0000000    -86248.563    300.000
 OXIDANT     O2                           3.5000000     -2439.995    300.000
 OXIDANT     N2                          13.1667000     -2440.472    300.000

 O/F=    9.40658  %FUEL=  9.609301  R,EQ.RATIO= 1.700000  PHI,EQ.RATIO= 1.700000

 THERMODYNAMIC PROPERTIES

 P, BAR            8.8132
 T, K             2238.00
 RHO, KG/CU M    1.1623 0
 H, KJ/KG          406.16
 U, KJ/KG         -352.09
 G, KJ/KG        -22034.5
 S, KJ/(KG)(K)    10.0271

 M, (1/n)          24.541
 (dLV/dLP)t      -1.00024
 (dLV/dLT)p        1.0060
 Cp, KJ/(KG)(K)    1.6640
 GAMMAs            1.2592
 SON VEL,M/SEC      977.1

 MOLE FRACTIONS

 *C              1.402-14
 *CH             3.199-14
 CH2             1.610-12
 CH3             1.286-10
 CH2OH           2.667-12
 CH3O            3.386-13
 CH4             9.199-10
 CH3OH           2.864-12
 *CN             1.078-10
 *CO             1.2560-1
 *CO2            3.1249-2
 COOH            4.0551-8
 C2H             1.576-16
 C2H2,acetylene  5.489-13
 C2H2,vinylidene 1.582-16
 CH2CO,ketene    3.897-12
 O(CH)2O         3.253-15
 HO(CO)2OH       1.332-16
 CH3CN           1.202-15
 CH3CO,acetyl    8.758-16
 C2H4            1.013-15
 CH3CHO,ethanal  2.209-16
 OCCN            5.145-14
 C2N2            1.412-14
 C2O             1.400-13
 C3O2            5.419-15
 *H              7.4302-4
 HCN             3.8864-7
 HCO             1.7836-7
 HCCO            6.973-14
 HNC             2.9174-8
 HNCO            1.4908-7
 HNO             6.0192-9
 HNO2            6.436-11
 HO2             7.417-10
 *H2             1.0017-1
 HCHO,formaldehy 4.5292-8
 HCOOH           5.6746-8
 H2O             1.3465-1
 H2O2            9.889-10
 *N              5.1064-9
 NCO             6.084-10
 *NH             1.2703-8
 NH2             8.7799-8
 NH3             3.0982-6
 NH2OH           9.365-12
 *NO             1.7159-5
 NO2             8.840-11
 *N2             6.0740-1
 NCN             2.833-15
 N2H2            6.269-12
 N2H4            2.239-15
 N2O             2.4941-9
 N3              4.614-14
 N3H             1.526-13
 *O              7.5203-7
 *OH             1.6431-4
 *O2             4.2446-7
 O3              1.264-16

  * THERMODYNAMIC PROPERTIES FITTED TO 20000.K









         THERMODYNAMIC EQUILIBRIUM COMBUSTION PROPERTIES AT ASSIGNED

                                     VOLUME

 CASE =                

             REACTANT                       MOLES         ENERGY      TEMP
                                                         KJ/KG-MOL      K
 FUEL        C2H6                         1.0000000    -86248.563    300.000
 OXIDANT     O2                           3.5000000     -2439.995    300.000
 OXIDANT     N2                          13.1667000     -2440.472    300.000

 O/F=    8.88400  %FUEL= 10.117365  R,EQ.RATIO= 1.800000  PHI,EQ.RATIO= 1.800000

 THERMODYNAMIC PROPERTIES

 P, BAR            8.6569
 T, K             2161.21
 RHO, KG/CU M    1.1623 0
 H, KJ/KG          378.57
 U, KJ/KG         -366.23
 G, KJ/KG        -21444.4
 S, KJ/(KG)(K)    10.0976

 M, (1/n)          24.126
 (dLV/dLP)t      -1.00016
 (dLV/dLT)p        1.0041
 Cp, KJ/(KG)(K)    1.6588
 GAMMAs            1.2647
 SON VEL,M/SEC      970.5

 MOLE FRACTIONS

 *C              6.207-15
 *CH             1.930-14
 CH2             1.564-12
 CH3             2.150-10
 CH2OH           2.995-12
 CH3O            3.506-13
 CH4             2.5116-9
 CH3OH           4.941-12
 *CN             8.052-11
 *CO             1.3453-1
 *CO2            2.7823-2
 COOH            2.7618-8
 C2H             1.722-16
 C2H2,acetylene  1.234-12
 C2H2,vinylidene 2.534-16
 CH2CO,ketene    7.332-12
 O(CH)2O         4.031-15
 HO(CO)2OH       1.053-16
 C2H3,vinyl      1.210-16
 CH3CN           3.899-15
 CH3CO,acetyl    1.637-15
 C2H4            3.747-15
 CH3CHO,ethanal  6.059-16
 CH3COOH         1.126-16
 OCCN            4.954-14
 C2N2            2.213-14
 C2O             1.179-13
 C3O2            7.901-15
 *H              5.2644-4
 HCN             5.5604-7
 HCO             1.5373-7
 HCCO            7.888-14
 HNC             3.7075-8
 HNCO            1.6918-7
 HNO             2.5965-9
 HNO2            1.909-11
 HO2             1.918-10
 *H2             1.1780-1
 HCHO,formaldehy 5.6199-8
 HCOOH           5.6201-8
 H2O             1.2542-1
 H2O2            3.653-10
 *N              2.0351-9
 NCO             3.945-10
 *NH             6.8857-9
 NH2             7.1147-8
 NH3             4.2615-6
 NH2OH           6.217-12
 *NO             7.0439-6
 NO2             1.976-11
 *N2             5.9380-1
 NCN             1.802-15
 N2H2            4.685-12
 N2H4            2.447-15
 N2O             1.0057-9
 N3              1.894-14
 N3H             8.868-14
 *O              2.3023-7
 *OH             8.2431-5
 *O2             1.0374-7

  * THERMODYNAMIC PROPERTIES FITTED TO 20000.K









         THERMODYNAMIC EQUILIBRIUM COMBUSTION PROPERTIES AT ASSIGNED

                                     VOLUME

 CASE =                

             REACTANT                       MOLES         ENERGY      TEMP
                                                         KJ/KG-MOL      K
 FUEL        C2H6                         1.0000000    -86248.563    300.000
 OXIDANT     O2                           3.5000000     -2439.995    300.000
 OXIDANT     N2                          13.1667000     -2440.472    300.000

 O/F=    8.41642  %FUEL= 10.619750  R,EQ.RATIO= 1.900000  PHI,EQ.RATIO= 1.900000

 THERMODYNAMIC PROPERTIES

 P, BAR            8.4949
 T, K             2085.88
 RHO, KG/CU M    1.1623 0
 H, KJ/KG          350.65
 U, KJ/KG         -380.22
 G, KJ/KG        -20850.2
 S, KJ/(KG)(K)    10.1640

 M, (1/n)          23.729
 (dLV/dLP)t      -1.00011
 (dLV/dLT)p        1.0027
 Cp, KJ/(KG)(K)    1.6578
 GAMMAs            1.2697
 SON VEL,M/SEC      963.3

 MOLE FRACTIONS

 *C              2.519-15
 *CH             1.067-14
 CH2             1.404-12
 CH3             3.362-10
 CH2OH           3.176-12
 CH3O            3.416-13
 CH4             6.4844-9
 CH3OH           8.102-12
 *CN             5.668-11
 *CO             1.4257-1
 *CO2            2.5044-2
 COOH            1.8441-8
 C2H             1.703-16
 C2H2,acetylene  2.565-12
 C2H2,vinylidene 3.682-16
 CH2CO,ketene    1.303-11
 O(CH)2O         4.759-15
 C2H3,vinyl      2.356-16
 CH3CN           1.175-14
 CH3CO,acetyl    2.844-15
 C2H4            1.273-14
 CH3CHO,ethanal  1.549-15
 CH3COOH         2.332-16
 OCCN            4.496-14
 C2N2            3.261-14
 C2O             9.281-14
 C3O2            1.095-14
 *H              3.6045-4
 HCN             7.6372-7
 HCO             1.2749-7
 HCCO            8.338-14
 HNC             4.4943-8
 HNCO            1.8771-7
 HNO             1.0889-9
 HNO2            5.561-12
 HO2             4.831-11
 *H2             1.3515-1
 HCHO,formaldehy 6.7307-8
 HCOOH           5.4792-8
 H2O             1.1606-1
 H2O2            1.317-10
 *N              7.737-10
 NCO             2.470-10
 *NH             3.5578-9
 NH2             5.5214-8
 NH3             5.6781-6
 NH2OH           3.972-12
 *NO             2.8470-6
 NO2             4.343-12
 *N2             5.8076-1
 NCN             1.073-15
 N2H2            3.348-12
 N2H4            2.522-15
 N2O             3.996-10
 N3              7.445-15
 N3H             4.943-14
 *O              6.8304-8
 *OH             4.0433-5
 *O2             2.5025-8

  * THERMODYNAMIC PROPERTIES FITTED TO 20000.K









         THERMODYNAMIC EQUILIBRIUM COMBUSTION PROPERTIES AT ASSIGNED

                                     VOLUME

 CASE =                

             REACTANT                       MOLES         ENERGY      TEMP
                                                         KJ/KG-MOL      K
 FUEL        C2H6                         1.0000000    -86248.563    300.000
 OXIDANT     O2                           3.5000000     -2439.995    300.000
 OXIDANT     N2                          13.1667000     -2440.472    300.000

 O/F=    7.99560  %FUEL= 11.116550  R,EQ.RATIO= 2.000000  PHI,EQ.RATIO= 2.000000

 THERMODYNAMIC PROPERTIES

 P, BAR            8.3278
 T, K             2012.04
 RHO, KG/CU M    1.1623 0
 H, KJ/KG          322.45
 U, KJ/KG         -394.05
 G, KJ/KG        -20253.9
 S, KJ/(KG)(K)    10.2266

 M, (1/n)          23.349
 (dLV/dLP)t      -1.00007
 (dLV/dLT)p        1.0018
 Cp, KJ/(KG)(K)    1.6595
 GAMMAs            1.2744
 SON VEL,M/SEC      955.5

 MOLE FRACTIONS

 *C              9.416-16
 *CH             5.448-15
 CH2             1.179-12
 CH3             4.997-10
 CH2OH           3.213-12
 CH3O            3.166-13
 CH4             1.6154-8
 CH3OH           1.281-11
 *CN             3.785-11
 *CO             1.4990-1
 *CO2            2.2742-2
 COOH            1.2067-8
 C2H             1.550-16
 C2H2,acetylene  5.039-12
 C2H2,vinylidene 4.957-16
 CH2CO,ketene    2.222-11
 O(CH)2O         5.414-15
 C2H3,vinyl      4.263-16
 CH3CN           3.371-14
 CH3CO,acetyl    4.678-15
 C2H4            4.085-14
 CH3CHO,ethanal  3.781-15
 CH3COOH         4.674-16
 OCCN            3.885-14
 C2N2            4.586-14
 C2O             6.901-14
 C3O2            1.462-14
 *H              2.3886-4
 HCN             1.0178-6
 HCO             1.0221-7
 HCCO            8.341-14
 HNC             5.2509-8
 HNCO            2.0475-7
 HNO             4.420-10
 HNO2            1.576-12
 HO2             1.173-11
 *H2             1.5210-1
 HCHO,formaldehy 7.8456-8
 HCOOH           5.2759-8
 H2O             1.0672-1
 H2O2            4.601-11
 *N              2.799-10
 NCO             1.494-10
 *NH             1.7536-9
 NH2             4.1218-8
 NH3             7.3912-6
 NH2OH           2.447-12
 *NO             1.1250-6
 NO2             9.264-13
 *N2             5.6827-1
 NCN             6.016-16
 N2H2            2.299-12
 N2H4            2.477-15
 N2O             1.554-10
 N3              2.795-15
 N3H             2.646-14
 *O              1.9481-8
 *OH             1.9312-5
 *O2             5.8808-9

  * THERMODYNAMIC PROPERTIES FITTED TO 20000.K



