
 *******************************************************************************

         NASA-GLENN CHEMICAL EQUILIBRIUM PROGRAM CEA2, MAY 21, 2004
                   BY  BONNIE MCBRIDE AND SANFORD GORDON
      REFS: NASA RP-1311, PART I, 1994 AND NASA RP-1311, PART II, 1996

 *******************************************************************************



 problem    phi,eq.ratio=0.5,0.6,0.7,0.8,0.9,1,1.1,1.2,1.3,1.4,1.5,1.6,1.7,1.8,1.
 9,2,
       uv   rho,kg/m**3=1.2804,  t,k=3800
 react
   fuel=C8H18,isooctane moles=1 t,k=300
   oxid=O2 moles=12.5 t,k=300
   oxid=N2 moles=47.0238 t,k=300
 output
      trace=1e-16 siunits short
 end




         THERMODYNAMIC EQUILIBRIUM COMBUSTION PROPERTIES AT ASSIGNED

                                     VOLUME

 CASE =                

             REACTANT                       MOLES         ENERGY      TEMP
                                                         KJ/KG-MOL      K
 FUEL        C8H18,isooctane              1.0000000   -226154.811    300.000
 OXIDANT     O2                          12.5000000     -2439.995    300.000
 OXIDANT     N2                          47.0238000     -2440.472    300.000

 O/F=   30.06747  %FUEL=  3.218800  R,EQ.RATIO= 0.500000  PHI,EQ.RATIO= 0.500000

 THERMODYNAMIC PROPERTIES

 P, BAR            6.8280
 T, K             1842.03
 RHO, KG/CU M    1.2804 0
 H, KJ/KG          387.68
 U, KJ/KG         -145.59
 G, KJ/KG        -15400.8
 S, KJ/(KG)(K)     8.5712

 M, (1/n)          28.720
 (dLV/dLP)t      -1.00004
 (dLV/dLT)p        1.0016
 Cp, KJ/(KG)(K)    1.3923
 GAMMAs            1.2635
 SON VEL,M/SEC      820.8

 MOLE FRACTIONS

 *CO             2.4682-5
 *CO2            6.4719-2
 COOH            7.873-11
 *H              5.1082-7
 HCO             4.475-14
 HNCO            2.217-13
 HNO             7.3662-9
 HNO2            2.5904-7
 HNO3            1.739-10
 HO2             1.1619-6
 *H2             6.9510-6
 HCHO,formaldehy 4.920-16
 HCOOH           5.099-12
 H2O             7.2608-2
 H2O2            6.3549-8
 *N              2.533-11
 NCO             6.468-15
 *NH             1.911-12
 NH2             7.145-13
 NH3             2.943-12
 NH2OH           3.519-15
 *NO             3.2282-3
 NO2             1.3472-5
 NO3             2.772-11
 *N2             7.5951-1
 N2O             4.7467-7
 N2O3            6.818-13
 N2O4            1.235-16
 N3              3.409-16
 *O              2.1651-5
 *OH             4.4232-4
 *O2             9.9428-2
 O3              2.2671-9

  * THERMODYNAMIC PROPERTIES FITTED TO 20000.K









         THERMODYNAMIC EQUILIBRIUM COMBUSTION PROPERTIES AT ASSIGNED

                                     VOLUME

 CASE =                

             REACTANT                       MOLES         ENERGY      TEMP
                                                         KJ/KG-MOL      K
 FUEL        C8H18,isooctane              1.0000000   -226154.811    300.000
 OXIDANT     O2                          12.5000000     -2439.995    300.000
 OXIDANT     N2                          47.0238000     -2440.472    300.000

 O/F=   25.05623  %FUEL=  3.837854  R,EQ.RATIO= 0.600000  PHI,EQ.RATIO= 0.600000

 THERMODYNAMIC PROPERTIES

 P, BAR            7.6694
 T, K             2066.46
 RHO, KG/CU M    1.2804 0
 H, KJ/KG          441.66
 U, KJ/KG         -157.32
 G, KJ/KG        -17602.5
 S, KJ/(KG)(K)     8.7319

 M, (1/n)          28.685
 (dLV/dLP)t      -1.00019
 (dLV/dLT)p        1.0063
 Cp, KJ/(KG)(K)    1.4829
 GAMMAs            1.2465
 SON VEL,M/SEC      864.1

 MOLE FRACTIONS

 *CO             2.2543-4
 *CO2            7.6874-2
 COOH            9.608-10
 *H              6.5992-6
 HCN             1.278-14
 HCO             3.472-12
 HNC             7.270-16
 HNCO            6.014-12
 HNO             3.8540-8
 HNO2            3.6187-7
 HNO3            1.592-10
 HO2             2.7787-6
 *H2             5.2316-5
 HCHO,formaldehy 3.724-14
 HCOOH           5.818-11
 H2O             8.5994-2
 H2O2            1.5350-7
 *N              7.146-10
 NCO             3.686-13
 *NH             6.566-11
 NH2             2.092-11
 NH3             4.580-11
 NH2OH           5.331-14
 *NO             5.4215-3
 NO2             1.4234-5
 NO3             3.759-11
 *N2             7.5260-1
 N2H2            1.350-15
 N2O             8.2405-7
 N2O3            1.123-12
 N2O4            1.181-16
 N3              8.207-15
 N3H             1.102-15
 *O              1.1003-4
 *OH             1.3722-3
 *O2             7.7327-2
 O3              4.6950-9

  * THERMODYNAMIC PROPERTIES FITTED TO 20000.K









         THERMODYNAMIC EQUILIBRIUM COMBUSTION PROPERTIES AT ASSIGNED

                                     VOLUME

 CASE =                

             REACTANT                       MOLES         ENERGY      TEMP
                                                         KJ/KG-MOL      K
 FUEL        C8H18,isooctane              1.0000000   -226154.811    300.000
 OXIDANT     O2                          12.5000000     -2439.995    300.000
 OXIDANT     N2                          47.0238000     -2440.472    300.000

 O/F=   21.47677  %FUEL=  4.449038  R,EQ.RATIO= 0.700000  PHI,EQ.RATIO= 0.700000

 THERMODYNAMIC PROPERTIES

 P, BAR            8.4264
 T, K             2265.97
 RHO, KG/CU M    1.2804 0
 H, KJ/KG          489.20
 U, KJ/KG         -168.91
 G, KJ/KG        -19621.6
 S, KJ/(KG)(K)     8.8751

 M, (1/n)          28.628
 (dLV/dLP)t      -1.00065
 (dLV/dLT)p        1.0195
 Cp, KJ/(KG)(K)    1.6288
 GAMMAs            1.2265
 SON VEL,M/SEC      898.4

 MOLE FRACTIONS

 *CN             4.530-15
 *CO             1.1979-3
 *CO2            8.8005-2
 COOH            6.2061-9
 *H              4.3645-5
 HCN             6.449-13
 HCO             9.084-11
 HNC             5.044-14
 HNCO            7.423-11
 HNO             1.2513-7
 HNO2            4.2185-7
 HNO3            1.284-10
 HO2             4.7397-6
 *H2             2.4429-4
 HCHO,formaldehy 1.006-12
 HCOOH           3.776-10
 H2O             9.8578-2
 H2O2            2.7646-7
 *N              7.9575-9
 NCO             7.431-12
 *NH             8.807-10
 NH2             2.621-10
 NH3             3.811-10
 NH2OH           4.109-13
 *NO             7.3271-3
 NO2             1.2911-5
 NO3             3.839-11
 *N2             7.4537-1
 N2H2            2.071-14
 N2O             1.1529-6
 N2O3            1.327-12
 N3              8.235-14
 N3H             1.195-14
 *O              3.3060-4
 *OH             3.0122-3
 *O2             5.5867-2
 O3              6.5255-9

  * THERMODYNAMIC PROPERTIES FITTED TO 20000.K









         THERMODYNAMIC EQUILIBRIUM COMBUSTION PROPERTIES AT ASSIGNED

                                     VOLUME

 CASE =                

             REACTANT                       MOLES         ENERGY      TEMP
                                                         KJ/KG-MOL      K
 FUEL        C8H18,isooctane              1.0000000   -226154.811    300.000
 OXIDANT     O2                          12.5000000     -2439.995    300.000
 OXIDANT     N2                          47.0238000     -2440.472    300.000

 O/F=   18.79217  %FUEL=  5.052503  R,EQ.RATIO= 0.800000  PHI,EQ.RATIO= 0.800000

 THERMODYNAMIC PROPERTIES

 P, BAR            9.0799
 T, K             2433.36
 RHO, KG/CU M    1.2804 0
 H, KJ/KG          528.80
 U, KJ/KG         -180.35
 G, KJ/KG        -21382.6
 S, KJ/(KG)(K)     9.0046

 M, (1/n)          28.530
 (dLV/dLP)t      -1.00179
 (dLV/dLT)p        1.0493
 Cp, KJ/(KG)(K)    1.8816
 GAMMAs            1.2030
 SON VEL,M/SEC      923.6

 MOLE FRACTIONS

 CH2OH           1.034-16
 *CN             1.510-13
 *CO             4.3057-3
 *CO2            9.6649-2
 COOH            2.4799-8
 *H              1.7684-4
 HCN             1.353-11
 HCO             1.0790-9
 HNC             1.326-12
 HNCO            5.189-10
 HNO             2.7926-7
 HNO2            4.1126-7
 HNO3            8.776-11
 HO2             6.0337-6
 *H2             8.1726-4
 HCHO,formaldehy 1.301-11
 HCOOH           1.6124-9
 H2O             1.1014-1
 H2O2            3.8814-7
 *N              4.4143-8
 NCO             6.948-11
 *NH             5.9074-9
 NH2             1.7774-9
 NH3             2.0495-9
 NH2OH           1.913-12
 *NO             8.2059-3
 NO2             9.9109-6
 NO3             2.922-11
 *N2             7.3765-1
 N2H2            1.641-13
 N2O             1.3321-6
 N2O3            1.124-12
 N3              4.268-13
 N3H             6.946-14
 *O              6.5377-4
 *OH             5.0407-3
 *O2             3.6335-2
 O3              6.2177-9

  * THERMODYNAMIC PROPERTIES FITTED TO 20000.K









         THERMODYNAMIC EQUILIBRIUM COMBUSTION PROPERTIES AT ASSIGNED

                                     VOLUME

 CASE =                

             REACTANT                       MOLES         ENERGY      TEMP
                                                         KJ/KG-MOL      K
 FUEL        C8H18,isooctane              1.0000000   -226154.811    300.000
 OXIDANT     O2                          12.5000000     -2439.995    300.000
 OXIDANT     N2                          47.0238000     -2440.472    300.000

 O/F=   16.70415  %FUEL=  5.648392  R,EQ.RATIO= 0.900000  PHI,EQ.RATIO= 0.900000

 THERMODYNAMIC PROPERTIES

 P, BAR            9.6050
 T, K             2559.21
 RHO, KG/CU M    1.2804 0
 H, KJ/KG          558.52
 U, KJ/KG         -191.64
 G, KJ/KG        -22789.0
 S, KJ/(KG)(K)     9.1229

 M, (1/n)          28.366
 (dLV/dLP)t      -1.00373
 (dLV/dLT)p        1.0975
 Cp, KJ/(KG)(K)    2.2490
 GAMMAs            1.1810
 SON VEL,M/SEC      941.2

 MOLE FRACTIONS

 *C              1.569-15
 *CH             2.366-16
 CH2             4.341-16
 CH3             1.006-15
 CH2OH           1.565-15
 CH3O            2.675-16
 CH4             2.548-16
 *CN             2.028-12
 *CO             1.1375-2
 *CO2            1.0083-1
 COOH            6.6382-8
 C2O             1.928-16
 *H              4.8471-4
 HCN             1.451-10
 HCO             6.8634-9
 HNC             1.653-11
 HNCO            2.3242-9
 HNO             4.4818-7
 HNO2            3.2942-7
 HNO3            4.820-11
 HO2             5.7612-6
 *H2             2.1388-3
 HCHO,formaldehy 9.516-11
 HCOOH           4.9075-9
 H2O             1.2053-1
 H2O2            4.2958-7
 *N              1.3746-7
 NCO             3.479-10
 *NH             2.2649-8
 NH2             7.4566-9
 NH3             8.0051-9
 NH2OH           5.907-12
 *NO             7.6356-3
 NO2             6.2309-6
 NO3             1.587-11
 *N2             7.2903-1
 NCN             1.005-16
 N2H2            7.675-13
 NH2NO2          1.439-16
 N2O             1.2697-6
 N2O3            6.566-13
 N3              1.274-12
 N3H             2.431-13
 *O              8.8812-4
 *OH             6.6461-3
 *O2             2.0424-2
 O3              3.9402-9

  * THERMODYNAMIC PROPERTIES FITTED TO 20000.K









         THERMODYNAMIC EQUILIBRIUM COMBUSTION PROPERTIES AT ASSIGNED

                                     VOLUME

 CASE =                

             REACTANT                       MOLES         ENERGY      TEMP
                                                         KJ/KG-MOL      K
 FUEL        C8H18,isooctane              1.0000000   -226154.811    300.000
 OXIDANT     O2                          12.5000000     -2439.995    300.000
 OXIDANT     N2                          47.0238000     -2440.472    300.000

 O/F=   15.03374  %FUEL=  6.236849  R,EQ.RATIO= 1.000000  PHI,EQ.RATIO= 1.000000

 THERMODYNAMIC PROPERTIES

 P, BAR            9.9816
 T, K             2636.37
 RHO, KG/CU M    1.2804 0
 H, KJ/KG          576.78
 U, KJ/KG         -202.79
 G, KJ/KG        -23761.9
 S, KJ/(KG)(K)     9.2319

 M, (1/n)          28.118
 (dLV/dLP)t      -1.00538
 (dLV/dLT)p        1.1371
 Cp, KJ/(KG)(K)    2.5453
 GAMMAs            1.1694
 SON VEL,M/SEC      954.8

 MOLE FRACTIONS

 *C              1.498-14
 *CH             2.883-15
 CH2             5.973-15
 CH3             1.494-14
 CH2OH           1.276-14
 CH3O            2.322-15
 CH4             4.268-15
 CH3OH           7.006-16
 *CN             1.326-11
 *CO             2.3667-2
 *CO2            9.9152-2
 COOH            1.2618-7
 CH2CO,ketene    2.344-16
 HO(CO)2OH       1.435-16
 OCCN            5.740-16
 C2O             2.608-15
 *H              9.6659-4
 HCN             9.478-10
 HCO             2.6633-8
 HCCO            1.157-16
 HNC             1.175-10
 HNCO            7.3988-9
 HNO             5.2788-7
 HNO2            2.0902-7
 HNO3            1.974-11
 HO2             4.0371-6
 *H2             4.7104-3
 HCHO,formaldehy 4.535-10
 HCOOH           1.1385-8
 H2O             1.2948-1
 H2O2            3.7119-7
 *N              2.5969-7
 NCO             1.0401-9
 *NH             5.4583-8
 NH2             2.1451-8
 NH3             2.5090-8
 NH2OH           1.297-11
 *NO             5.8158-3
 NO2             3.0385-6
 NO3             5.696-12
 *N2             7.1902-1
 NCN             7.378-16
 N2H2            2.352-12
 NH2NO2          1.527-16
 N2O             9.8101-7
 N2O3            2.455-13
 N3              2.349-12
 N3H             5.564-13
 *O              8.3842-4
 *OH             6.9942-3
 *O2             9.3478-3
 O3              1.5470-9

  * THERMODYNAMIC PROPERTIES FITTED TO 20000.K









         THERMODYNAMIC EQUILIBRIUM COMBUSTION PROPERTIES AT ASSIGNED

                                     VOLUME

 CASE =                

             REACTANT                       MOLES         ENERGY      TEMP
                                                         KJ/KG-MOL      K
 FUEL        C8H18,isooctane              1.0000000   -226154.811    300.000
 OXIDANT     O2                          12.5000000     -2439.995    300.000
 OXIDANT     N2                          47.0238000     -2440.472    300.000

 O/F=   13.66703  %FUEL=  6.818011  R,EQ.RATIO= 1.100000  PHI,EQ.RATIO= 1.100000

 THERMODYNAMIC PROPERTIES

 P, BAR            10.194
 T, K             2660.36
 RHO, KG/CU M    1.2804 0
 H, KJ/KG          582.36
 U, KJ/KG         -213.81
 G, KJ/KG        -24245.7
 S, KJ/(KG)(K)     9.3326

 M, (1/n)          27.783
 (dLV/dLP)t      -1.00471
 (dLV/dLT)p        1.1200
 Cp, KJ/(KG)(K)    2.4325
 GAMMAs            1.1759
 SON VEL,M/SEC      967.6

 MOLE FRACTIONS

 *C              6.187-14
 *CH             1.603-14
 CH2             4.311-14
 CH3             1.381-13
 CH2OH           6.547-14
 CH3O            1.214-14
 CH4             5.120-14
 CH3OH           4.721-15
 *CN             4.884-11
 *CO             4.1152-2
 *CO2            9.1510-2
 COOH            1.7753-7
 CH2CO,ketene    2.639-15
 HO(CO)2OH       2.581-16
 OCCN            3.596-15
 C2O             1.685-14
 *H              1.4732-3
 HCN             4.3677-9
 HCO             6.9845-8
 HCCO            1.010-15
 HNC             5.556-10
 HNCO            1.8262-8
 HNO             4.5586-7
 HNO2            9.9611-8
 HNO3            5.482-12
 HO2             1.9847-6
 *H2             9.2569-3
 HCHO,formaldehy 1.5834-9
 HCOOH           2.1285-8
 H2O             1.3633-1
 H2O2            2.4319-7
 *N              3.1067-7
 NCO             2.0127-9
 *NH             8.7906-8
 NH2             4.5596-8
 NH3             6.8490-8
 NH2OH           2.113-11
 *NO             3.5211-3
 NO2             1.0692-6
 NO3             1.214-12
 *N2             7.0713-1
 NCN             2.808-15
 N2H2            5.089-12
 NH2NO2          1.061-16
 N2O             5.9567-7
 N2O3            5.293-14
 N3              2.782-12
 N3H             8.800-13
 *O              5.4209-4
 *OH             5.8471-3
 *O2             3.2322-3
 O3              3.395-10

  * THERMODYNAMIC PROPERTIES FITTED TO 20000.K









         THERMODYNAMIC EQUILIBRIUM COMBUSTION PROPERTIES AT ASSIGNED

                                     VOLUME

 CASE =                

             REACTANT                       MOLES         ENERGY      TEMP
                                                         KJ/KG-MOL      K
 FUEL        C8H18,isooctane              1.0000000   -226154.811    300.000
 OXIDANT     O2                          12.5000000     -2439.995    300.000
 OXIDANT     N2                          47.0238000     -2440.472    300.000

 O/F=   12.52811  %FUEL=  7.392013  R,EQ.RATIO= 1.200000  PHI,EQ.RATIO= 1.200000

 THERMODYNAMIC PROPERTIES

 P, BAR            10.244
 T, K             2633.76
 RHO, KG/CU M    1.2804 0
 H, KJ/KG          575.37
 U, KJ/KG         -224.68
 G, KJ/KG        -24249.3
 S, KJ/(KG)(K)     9.4256

 M, (1/n)          27.371
 (dLV/dLP)t      -1.00272
 (dLV/dLT)p        1.0698
 Cp, KJ/(KG)(K)    2.0685
 GAMMAs            1.1981
 SON VEL,M/SEC      979.1

 MOLE FRACTIONS

 *C              1.243-13
 *CH             4.573-14
 CH2             1.818-13
 CH3             8.736-13
 CH2OH           2.283-13
 CH3O            4.147-14
 CH4             4.790-13
 CH3OH           2.403-14
 *CN             1.109-10
 *CO             6.1931-2
 *CO2            7.9770-2
 COOH            1.9140-7
 C2H2,acetylene  5.502-16
 CH2CO,ketene    1.943-14
 O(CH)2O         2.239-16
 HO(CO)2OH       3.431-16
 OCCN            1.295-14
 C2N2            2.061-16
 C2O             5.891-14
 C3O2            1.612-16
 *H              1.7717-3
 HCN             1.5268-8
 HCO             1.3155-7
 HCCO            4.997-15
 HNC             1.8882-9
 HNCO            3.6605-8
 HNO             2.9388-7
 HNO2            3.5624-8
 HNO3            1.024-12
 HO2             6.8917-7
 *H2             1.6581-2
 HCHO,formaldehy 4.2873-9
 HCOOH           3.3057-8
 H2O             1.3998-1
 H2O2            1.2125-7
 *N              2.4629-7
 NCO             2.6763-9
 *NH             9.8945-8
 NH2             7.4484-8
 NH3             1.6738-7
 NH2OH           2.625-11
 *NO             1.7047-3
 NO2             2.7112-7
 NO3             1.540-13
 *N2             6.9324-1
 NCN             6.115-15
 N2H2            8.111-12
 N2H4            2.037-16
 N2O             2.8601-7
 N2O3            6.597-15
 N3              2.208-12
 N3H             1.001-12
 *O              2.4523-4
 *OH             3.9274-3
 *O2             8.3990-4
 O3              4.191-11

  * THERMODYNAMIC PROPERTIES FITTED TO 20000.K









         THERMODYNAMIC EQUILIBRIUM COMBUSTION PROPERTIES AT ASSIGNED

                                     VOLUME

 CASE =                

             REACTANT                       MOLES         ENERGY      TEMP
                                                         KJ/KG-MOL      K
 FUEL        C8H18,isooctane              1.0000000   -226154.811    300.000
 OXIDANT     O2                          12.5000000     -2439.995    300.000
 OXIDANT     N2                          47.0238000     -2440.472    300.000

 O/F=   11.56441  %FUEL=  7.958987  R,EQ.RATIO= 1.300000  PHI,EQ.RATIO= 1.300000

 THERMODYNAMIC PROPERTIES

 P, BAR            10.177
 T, K             2573.49
 RHO, KG/CU M    1.2804 0
 H, KJ/KG          559.42
 U, KJ/KG         -235.43
 G, KJ/KG        -23918.0
 S, KJ/(KG)(K)     9.5114

 M, (1/n)          26.920
 (dLV/dLP)t      -1.00145
 (dLV/dLT)p        1.0370
 Cp, KJ/(KG)(K)    1.8251
 GAMMAs            1.2203
 SON VEL,M/SEC      984.9

 MOLE FRACTIONS

 *C              1.440-13
 *CH             7.680-14
 CH2             4.865-13
 CH3             3.859-12
 CH2OH           5.668-13
 CH3O            9.804-14
 CH4             3.375-12
 CH3OH           9.225-14
 *CN             1.717-10
 *CO             8.2754-2
 *CO2            6.7300-2
 COOH            1.6942-7
 C2H2,acetylene  4.312-15
 CH2CO,ketene    9.678-14
 O(CH)2O         6.186-16
 HO(CO)2OH       3.618-16
 OCCN            2.976-14
 C2N2            8.818-16
 C2O             1.259-13
 C3O2            6.025-16
 *H              1.7724-3
 HCN             4.1445-8
 HCO             1.8963-7
 HCCO            1.537-14
 HNC             4.7987-9
 HNCO            6.1259-8
 HNO             1.5534-7
 HNO2            1.0739-8
 HNO3            1.529-13
 HO2             1.9324-7
 *H2             2.6895-2
 HCHO,formaldehy 9.2249-9
 HCOOH           4.3892-8
 H2O             1.3989-1
 H2O2            5.0595-8
 *N              1.4602-7
 NCO             2.6852-9
 *NH             8.5030-8
 NH2             9.7693-8
 NH3             3.5973-7
 NH2OH           2.624-11
 *NO             7.2209-4
 NO2             5.7264-8
 NO3             1.456-14
 *N2             6.7811-1
 NCN             8.616-15
 N2H2            1.008-11
 N2H4            4.666-16
 N2O             1.1924-7
 N2O3            6.010-16
 N3              1.321-12
 N3H             8.864-13
 *O              8.8320-5
 *OH             2.2769-3
 *O2             1.8725-4
 O3              3.710-12

  * THERMODYNAMIC PROPERTIES FITTED TO 20000.K









         THERMODYNAMIC EQUILIBRIUM COMBUSTION PROPERTIES AT ASSIGNED

                                     VOLUME

 CASE =                

             REACTANT                       MOLES         ENERGY      TEMP
                                                         KJ/KG-MOL      K
 FUEL        C8H18,isooctane              1.0000000   -226154.811    300.000
 OXIDANT     O2                          12.5000000     -2439.995    300.000
 OXIDANT     N2                          47.0238000     -2440.472    300.000

 O/F=   10.73838  %FUEL=  8.519061  R,EQ.RATIO= 1.400000  PHI,EQ.RATIO= 1.400000

 THERMODYNAMIC PROPERTIES

 P, BAR            10.051
 T, K             2498.36
 RHO, KG/CU M    1.2804 0
 H, KJ/KG          538.94
 U, KJ/KG         -246.05
 G, KJ/KG        -23422.2
 S, KJ/(KG)(K)     9.5908

 M, (1/n)          26.462
 (dLV/dLP)t      -1.00084
 (dLV/dLT)p        1.0213
 Cp, KJ/(KG)(K)    1.7102
 GAMMAs            1.2358
 SON VEL,M/SEC      984.9

 MOLE FRACTIONS

 *C              1.173-13
 *CH             8.989-14
 CH2             9.268-13
 CH3             1.254-11
 CH2OH           1.079-12
 CH3O            1.751-13
 CH4             1.790-11
 CH3OH           2.749-13
 *CN             2.049-10
 *CO             1.0150-1
 *CO2            5.6385-2
 COOH            1.3341-7
 C2H2,acetylene  2.254-14
 CH2CO,ketene    3.484-13
 O(CH)2O         1.283-15
 HO(CO)2OH       3.305-16
 OCCN            4.985-14
 C2N2            2.679-15
 C2O             1.915-13
 C3O2            1.595-15
 *H              1.5714-3
 HCN             9.1280-8
 HCO             2.2678-7
 HCCO            3.328-14
 HNC             9.6909-9
 HNCO            8.9267-8
 HNO             7.4547-8
 HNO2            3.0766-9
 HNO3            2.176-14
 HO2             5.0262-8
 *H2             3.9701-2
 HCHO,formaldehy 1.6487-8
 HCOOH           5.1994-8
 H2O             1.3651-1
 H2O2            1.9583-8
 *N              7.3838-8
 NCO             2.2636-9
 *NH             6.1795-8
 NH2             1.0922-7
 NH3             6.7926-7
 NH2OH           2.265-11
 *NO             2.9321-4
 NO2             1.1645-8
 NO3             1.286-15
 *N2             6.6273-1
 NCN             9.093-15
 N2H2            1.052-11
 N2H4            8.467-16
 N2O             4.7501-8
 N3              6.780-13
 N3H             6.723-13
 *O              2.8952-5
 *OH             1.2309-3
 *O2             4.0828-5
 O3              3.010-13

  * THERMODYNAMIC PROPERTIES FITTED TO 20000.K









         THERMODYNAMIC EQUILIBRIUM COMBUSTION PROPERTIES AT ASSIGNED

                                     VOLUME

 CASE =                

             REACTANT                       MOLES         ENERGY      TEMP
                                                         KJ/KG-MOL      K
 FUEL        C8H18,isooctane              1.0000000   -226154.811    300.000
 OXIDANT     O2                          12.5000000     -2439.995    300.000
 OXIDANT     N2                          47.0238000     -2440.472    300.000

 O/F=   10.02249  %FUEL=  9.072359  R,EQ.RATIO= 1.500000  PHI,EQ.RATIO= 1.500000

 THERMODYNAMIC PROPERTIES

 P, BAR            9.8969
 T, K             2418.42
 RHO, KG/CU M    1.2804 0
 H, KJ/KG          516.43
 U, KJ/KG         -256.53
 G, KJ/KG        -22856.3
 S, KJ/(KG)(K)     9.6645

 M, (1/n)          26.014
 (dLV/dLP)t      -1.00053
 (dLV/dLT)p        1.0134
 Cp, KJ/(KG)(K)    1.6561
 GAMMAs            1.2464
 SON VEL,M/SEC      981.5

 MOLE FRACTIONS

 *C              7.654-14
 *CH             8.287-14
 CH2             1.390-12
 CH3             3.227-11
 CH2OH           1.695-12
 CH3O            2.563-13
 CH4             7.532-11
 CH3OH           6.730-13
 *CN             2.061-10
 *CO             1.1772-1
 *CO2            4.7566-2
 COOH            9.8343-8
 C2H             1.253-16
 C2H2,acetylene  8.721-14
 CH2CO,ketene    9.883-13
 O(CH)2O         2.182-15
 HO(CO)2OH       2.785-16
 CH3CO,acetyl    2.049-16
 OCCN            6.771-14
 C2N2            6.393-15
 C2O             2.330-13
 C3O2            3.348-15
 *H              1.2874-3
 HCN             1.7232-7
 HCO             2.3963-7
 HCCO            5.662-14
 HNC             1.6582-8
 HNCO            1.1814-7
 HNO             3.4169-8
 HNO2            8.793-10
 HNO3            3.151-15
 HO2             1.2862-8
 *H2             5.4275-2
 HCHO,formaldehy 2.5746-8
 HCOOH           5.7072-8
 H2O             1.3071-1
 H2O2            7.3668-9
 *N              3.4206-8
 NCO             1.7200-9
 *NH             4.0446-8
 NH2             1.0913-7
 NH3             1.1517-6
 NH2OH           1.773-11
 *NO             1.1852-4
 NO2             2.4083-9
 NO3             1.158-16
 *N2             6.4766-1
 NCN             7.971-15
 N2H2            9.750-12
 N2H4            1.288-15
 N2O             1.8820-8
 N3              3.200-13
 N3H             4.630-13
 *O              9.1787-6
 *OH             6.4425-4
 *O2             9.1276-6
 O3              2.465-14

  * THERMODYNAMIC PROPERTIES FITTED TO 20000.K









         THERMODYNAMIC EQUILIBRIUM COMBUSTION PROPERTIES AT ASSIGNED

                                     VOLUME

 CASE =                

             REACTANT                       MOLES         ENERGY      TEMP
                                                         KJ/KG-MOL      K
 FUEL        C8H18,isooctane              1.0000000   -226154.811    300.000
 OXIDANT     O2                          12.5000000     -2439.995    300.000
 OXIDANT     N2                          47.0238000     -2440.472    300.000

 O/F=    9.39609  %FUEL=  9.619005  R,EQ.RATIO= 1.600000  PHI,EQ.RATIO= 1.600000

 THERMODYNAMIC PROPERTIES

 P, BAR            9.7285
 T, K             2337.68
 RHO, KG/CU M    1.2804 0
 H, KJ/KG          492.91
 U, KJ/KG         -266.89
 G, KJ/KG        -22260.0
 S, KJ/(KG)(K)     9.7331

 M, (1/n)          25.581
 (dLV/dLP)t      -1.00035
 (dLV/dLT)p        1.0088
 Cp, KJ/(KG)(K)    1.6289
 GAMMAs            1.2543
 SON VEL,M/SEC      976.2

 MOLE FRACTIONS

 *C              4.283-14
 *CH             6.458-14
 CH2             1.755-12
 CH3             6.999-11
 CH2OH           2.320-12
 CH3O            3.252-13
 CH4             2.668-10
 CH3OH           1.427-12
 *CN             1.843-10
 *CO             1.3173-1
 *CO2            4.0603-2
 COOH            6.9575-8
 C2H             1.937-16
 C2H2,acetylene  2.719-13
 C2H2,vinylidene 1.177-16
 CH2CO,ketene    2.370-12
 O(CH)2O         3.240-15
 HO(CO)2OH       2.240-16
 CH3CN           3.844-16
 CH3CO,acetyl    5.143-16
 C2H4            2.533-16
 OCCN            7.982-14
 C2N2            1.290-14
 C2O             2.438-13
 C3O2            6.017-15
 *H              9.9611-4
 HCN             2.9142-7
 HCO             2.3250-7
 HCCO            8.151-14
 HNC             2.5214-8
 HNCO            1.4636-7
 HNO             1.5210-8
 HNO2            2.525-10
 HNO3            4.672-16
 HO2             3.2745-9
 *H2             6.9942-2
 HCHO,formaldehy 3.6525-8
 HCOOH           5.9538-8
 H2O             1.2327-1
 H2O2            2.7254-9
 *N              1.4931-8
 NCO             1.2212-9
 *NH             2.4571-8
 NH2             1.0037-7
 NH3             1.7974-6
 NH2OH           1.293-11
 *NO             4.7979-5
 NO2             5.087-10
 *N2             6.3308-1
 NCN             6.149-15
 N2H2            8.289-12
 N2H4            1.718-15
 N2O             7.4690-9
 N3              1.428-13
 N3H             2.979-13
 *O              2.8573-6
 *OH             3.3017-4
 *O2             2.0945-6
 O3              2.063-15

  * THERMODYNAMIC PROPERTIES FITTED TO 20000.K









         THERMODYNAMIC EQUILIBRIUM COMBUSTION PROPERTIES AT ASSIGNED

                                     VOLUME

 CASE =                

             REACTANT                       MOLES         ENERGY      TEMP
                                                         KJ/KG-MOL      K
 FUEL        C8H18,isooctane              1.0000000   -226154.811    300.000
 OXIDANT     O2                          12.5000000     -2439.995    300.000
 OXIDANT     N2                          47.0238000     -2440.472    300.000

 O/F=    8.84337  %FUEL= 10.159118  R,EQ.RATIO= 1.700000  PHI,EQ.RATIO= 1.700000

 THERMODYNAMIC PROPERTIES

 P, BAR            9.5508
 T, K             2257.61
 RHO, KG/CU M    1.2804 0
 H, KJ/KG          468.80
 U, KJ/KG         -277.13
 G, KJ/KG        -21649.3
 S, KJ/(KG)(K)     9.7971

 M, (1/n)          25.165
 (dLV/dLP)t      -1.00024
 (dLV/dLT)p        1.0059
 Cp, KJ/(KG)(K)    1.6147
 GAMMAs            1.2608
 SON VEL,M/SEC      969.8

 MOLE FRACTIONS

 *C              2.130-14
 *CH             4.428-14
 CH2             1.949-12
 CH3             1.339-10
 CH2OH           2.867-12
 CH3O            3.714-13
 CH4             8.356-10
 CH3OH           2.725-12
 *CN             1.508-10
 *CO             1.4395-1
 *CO2            3.5090-2
 COOH            4.7776-8
 C2H             2.534-16
 C2H2,acetylene  7.271-13
 C2H2,vinylidene 2.277-16
 CH2CO,ketene    5.049-12
 O(CH)2O         4.371-15
 HO(CO)2OH       1.752-16
 CH3CN           1.495-15
 CH3CO,acetyl    1.117-15
 C2H4            1.147-15
 CH3CHO,ethanal  2.520-16
 OCCN            8.503-14
 C2N2            2.313-14
 C2O             2.286-13
 C3O2            9.732-15
 *H              7.3623-4
 HCN             4.5549-7
 HCO             2.1185-7
 HCCO            1.041-13
 HNC             3.5197-8
 HNCO            1.7315-7
 HNO             6.5943-9
 HNO2            7.235-11
 HO2             8.244-10
 *H2             8.6165-2
 HCHO,formaldehy 4.8361-8
 HCOOH           5.9958-8
 H2O             1.1481-1
 H2O2            9.900-10
 *N              6.1977-9
 NCO             8.245-10
 *NH             1.4052-8
 NH2             8.6509-8
 NH3             2.6359-6
 NH2OH           8.917-12
 *NO             1.9359-5
 NO2             1.084-10
 *N2             6.1906-1
 NCN             4.309-15
 N2H2            6.590-12
 N2H4            2.071-15
 N2O             2.9560-9
 N3              6.081-14
 N3H             1.815-13
 *O              8.7169-7
 *OH             1.6585-4
 *O2             4.8675-7
 O3              1.734-16

  * THERMODYNAMIC PROPERTIES FITTED TO 20000.K









         THERMODYNAMIC EQUILIBRIUM COMBUSTION PROPERTIES AT ASSIGNED

                                     VOLUME

 CASE =                

             REACTANT                       MOLES         ENERGY      TEMP
                                                         KJ/KG-MOL      K
 FUEL        C8H18,isooctane              1.0000000   -226154.811    300.000
 OXIDANT     O2                          12.5000000     -2439.995    300.000
 OXIDANT     N2                          47.0238000     -2440.472    300.000

 O/F=    8.35208  %FUEL= 10.692813  R,EQ.RATIO= 1.800000  PHI,EQ.RATIO= 1.800000

 THERMODYNAMIC PROPERTIES

 P, BAR            9.3662
 T, K             2178.76
 RHO, KG/CU M    1.2804 0
 H, KJ/KG          444.26
 U, KJ/KG         -287.24
 G, KJ/KG        -21031.4
 S, KJ/(KG)(K)     9.8568

 M, (1/n)          24.764
 (dLV/dLP)t      -1.00016
 (dLV/dLT)p        1.0040
 Cp, KJ/(KG)(K)    1.6075
 GAMMAs            1.2664
 SON VEL,M/SEC      962.5

 MOLE FRACTIONS

 *C              9.582-15
 *CH             2.735-14
 CH2             1.957-12
 CH3             2.337-10
 CH2OH           3.278-12
 CH3O            3.910-13
 CH4             2.4015-9
 CH3OH           4.826-12
 *CN             1.150-10
 *CO             1.5480-1
 *CO2            3.0657-2
 COOH            3.1988-8
 C2H             2.916-16
 C2H2,acetylene  1.741-12
 C2H2,vinylidene 3.872-16
 CH2CO,ketene    9.893-12
 O(CH)2O         5.501-15
 HO(CO)2OH       1.342-16
 C2H3,vinyl      1.704-16
 CH3CN           5.209-15
 CH3CO,acetyl    2.184-15
 C2H4            4.584-15
 CH3CHO,ethanal  7.291-16
 CH3COOH         1.311-16
 OCCN            8.393-14
 C2N2            3.812-14
 C2O             1.971-13
 C3O2            1.463-14
 *H              5.2293-4
 HCN             6.7265-7
 HCO             1.8374-7
 HCCO            1.215-13
 HNC             4.6115-8
 HNCO            1.9817-7
 HNO             2.7779-9
 HNO2            2.045-11
 HO2             2.030-10
 *H2             1.0256-1
 HCHO,formaldehy 6.0865-8
 HCOOH           5.8845-8
 H2O             1.0577-1
 H2O2            3.510-10
 *N              2.4506-9
 NCO             5.339-10
 *NH             7.6148-9
 NH2             7.0672-8
 NH3             3.6904-6
 NH2OH           5.857-12
 *NO             7.7247-6
 NO2             2.292-11
 *N2             6.0560-1
 NCN             2.792-15
 N2H2            4.958-12
 N2H4            2.308-15
 N2O             1.1578-9
 N3              2.476-14
 N3H             1.054-13
 *O              2.5871-7
 *OH             8.1429-5
 *O2             1.1271-7

  * THERMODYNAMIC PROPERTIES FITTED TO 20000.K









         THERMODYNAMIC EQUILIBRIUM COMBUSTION PROPERTIES AT ASSIGNED

                                     VOLUME

 CASE =                

             REACTANT                       MOLES         ENERGY      TEMP
                                                         KJ/KG-MOL      K
 FUEL        C8H18,isooctane              1.0000000   -226154.811    300.000
 OXIDANT     O2                          12.5000000     -2439.995    300.000
 OXIDANT     N2                          47.0238000     -2440.472    300.000

 O/F=    7.91249  %FUEL= 11.220205  R,EQ.RATIO= 1.900000  PHI,EQ.RATIO= 1.900000

 THERMODYNAMIC PROPERTIES

 P, BAR            9.1755
 T, K             2101.29
 RHO, KG/CU M    1.2804 0
 H, KJ/KG          419.37
 U, KJ/KG         -297.24
 G, KJ/KG        -20409.6
 S, KJ/(KG)(K)     9.9125

 M, (1/n)          24.380
 (dLV/dLP)t      -1.00011
 (dLV/dLT)p        1.0027
 Cp, KJ/(KG)(K)    1.6044
 GAMMAs            1.2716
 SON VEL,M/SEC      954.6

 MOLE FRACTIONS

 *C              3.940-15
 *CH             1.543-14
 CH2             1.810-12
 CH3             3.805-10
 CH2OH           3.523-12
 CH3O            3.857-13
 CH4             6.5165-9
 CH3OH           8.091-12
 *CN             8.253-11
 *CO             1.6456-1
 *CO2            2.7020-2
 COOH            2.0907-8
 C2H             3.033-16
 C2H2,acetylene  3.856-12
 C2H2,vinylidene 5.969-16
 CH2CO,ketene    1.828-11
 O(CH)2O         6.573-15
 HO(CO)2OH       1.012-16
 C2H3,vinyl      3.544-16
 CH3CN           1.685-14
 CH3CO,acetyl    3.957-15
 C2H4            1.680-14
 CH3CHO,ethanal  1.961-15
 CH3COOH         2.787-16
 OCCN            7.800-14
 C2N2            5.912-14
 C2O             1.587-13
 C3O2            2.089-14
 *H              3.5806-4
 HCN             9.5340-7
 HCO             1.5291-7
 HCCO            1.323-13
 HNC             5.7600-8
 HNCO            2.2136-7
 HNO             1.1321-9
 HNO2            5.639-12
 HO2             4.832-11
 *H2             1.1886-1
 HCHO,formaldehy 7.3737-8
 HCOOH           5.6609-8
 H2O             9.6460-2
 H2O2            1.205-10
 *N              9.214-10
 NCO             3.329-10
 *NH             3.9201-9
 NH2             5.5114-8
 NH3             4.9922-6
 NH2OH           3.681-12
 *NO             3.0231-6
 NO2             4.734-12
 *N2             5.9269-1
 NCN             1.691-15
 N2H2            3.554-12
 N2H4            2.415-15
 N2O             4.452-10
 N3              9.621-15
 N3H             5.857-14
 *O              7.4043-8
 *OH             3.8915-5
 *O2             2.5591-8

  * THERMODYNAMIC PROPERTIES FITTED TO 20000.K









         THERMODYNAMIC EQUILIBRIUM COMBUSTION PROPERTIES AT ASSIGNED

                                     VOLUME

 CASE =                

             REACTANT                       MOLES         ENERGY      TEMP
                                                         KJ/KG-MOL      K
 FUEL        C8H18,isooctane              1.0000000   -226154.811    300.000
 OXIDANT     O2                          12.5000000     -2439.995    300.000
 OXIDANT     N2                          47.0238000     -2440.472    300.000

 O/F=    7.51687  %FUEL= 11.741405  R,EQ.RATIO= 2.000000  PHI,EQ.RATIO= 2.000000

 THERMODYNAMIC PROPERTIES

 P, BAR            8.9792
 T, K             2025.24
 RHO, KG/CU M    1.2804 0
 H, KJ/KG          394.16
 U, KJ/KG         -307.12
 G, KJ/KG        -19785.9
 S, KJ/(KG)(K)     9.9643

 M, (1/n)          24.012
 (dLV/dLP)t      -1.00007
 (dLV/dLT)p        1.0018
 Cp, KJ/(KG)(K)    1.6040
 GAMMAs            1.2765
 SON VEL,M/SEC      946.1

 MOLE FRACTIONS

 *C              1.487-15
 *CH             8.018-15
 CH2             1.562-12
 CH3             5.883-10
 CH2OH           3.598-12
 CH3O            3.604-13
 CH4             1.7063-8
 CH3OH           1.304-11
 *CN             5.616-11
 *CO             1.7348-1
 *CO2            2.3965-2
 COOH            1.3329-8
 C2H             2.904-16
 C2H2,acetylene  8.084-12
 C2H2,vinylidene 8.526-16
 CH2CO,ketene    3.243-11
 O(CH)2O         7.545-15
 C2H3,vinyl      6.853-16
 CH3CN           5.203-14
 CH3CO,acetyl    6.782-15
 C2H4            5.831-14
 CH3CHO,ethanal  5.030-15
 CH3COOH         5.714-16
 OCCN            6.897-14
 C2N2            8.778-14
 C2O             1.205-13
 C3O2            2.875-14
 *H              2.3667-4
 HCN             1.3123-6
 HCO             1.2271-7
 HCCO            1.361-13
 HNC             6.9360-8
 HNCO            2.4277-7
 HNO             4.441-10
 HNO2            1.499-12
 HO2             1.098-11
 *H2             1.3491-1
 HCHO,formaldehy 8.6755-8
 HCOOH           5.3556-8
 H2O             8.7082-2
 H2O2            3.977-11
 *N              3.284-10
 NCO             2.001-10
 *NH             1.9180-9
 NH2             4.1214-8
 NH3             6.5835-6
 NH2OH           2.217-12
 *NO             1.1511-6
 NO2             9.411-13
 *N2             5.8030-1
 NCN             9.635-16
 N2H2            2.440-12
 N2H4            2.397-15
 N2O             1.667-10
 N3              3.558-15
 N3H             3.114-14
 *O              2.0248-8
 *OH             1.8015-5
 *O2             5.6145-9

  * THERMODYNAMIC PROPERTIES FITTED TO 20000.K



