
 *******************************************************************************

         NASA-GLENN CHEMICAL EQUILIBRIUM PROGRAM CEA2, MAY 21, 2004
                   BY  BONNIE MCBRIDE AND SANFORD GORDON
      REFS: NASA RP-1311, PART I, 1994 AND NASA RP-1311, PART II, 1996

 *******************************************************************************



 problem    phi,eq.ratio=2.1,2.2,2.3,2.4,2.5,2.6,2.7,2.8,2.9,3,3.1,3.2,3.3,3.4,3.
 5,3.6,
       uv   rho,kg/m**3=2.0820,  t,k=3800
 react
   fuel=C8H18,isooctane moles=1 t,k=300
   oxid=O2 moles=12.5 t,k=300
 output
      trace=1e-16 siunits short
 end




         THERMODYNAMIC EQUILIBRIUM COMBUSTION PROPERTIES AT ASSIGNED

                                     VOLUME

 CASE =                

             REACTANT                       MOLES         ENERGY      TEMP
                                                         KJ/KG-MOL      K
 FUEL        C8H18,isooctane              1.0000000   -226154.811    300.000
 OXIDANT     O2                          12.5000000     -2439.995    300.000

 O/F=    1.66744  %FUEL= 37.489147  R,EQ.RATIO= 2.100000  PHI,EQ.RATIO= 2.100000

 THERMODYNAMIC PROPERTIES

 P, BAR            32.264
 T, K             3268.90
 RHO, KG/CU M    2.0820 0
 H, KJ/KG          759.76
 U, KJ/KG         -789.89
 G, KJ/KG        -43504.1
 S, KJ/(KG)(K)    13.5409

 M, (1/n)          17.539
 (dLV/dLP)t      -1.01094
 (dLV/dLT)p        1.1948
 Cp, KJ/(KG)(K)    4.0291
 GAMMAs            1.1863
 SON VEL,M/SEC     1355.8

 MOLE FRACTIONS

 *C              2.2672-9
 *CH             2.1546-9
 CH2             9.9310-9
 CH3             4.2024-8
 CH2OH           1.6283-9
 CH3O            4.539-10
 CH4             2.8047-8
 CH3OH           2.624-10
 CH3OOH          1.669-15
 *CO             4.2867-1
 *CO2            3.1793-2
 COOH            2.8601-6
 *C2             2.685-13
 C2H             2.018-11
 C2H2,acetylene  7.651-10
 C2H2,vinylidene 4.250-12
 CH2CO,ketene    1.4445-9
 O(CH)2O         2.778-12
 HO(CO)2OH       2.015-14
 C2H3,vinyl      7.470-13
 CH3CO,acetyl    2.304-12
 C2H4            7.198-13
 C2H4O,ethylen-o 1.508-16
 CH3CHO,ethanal  1.247-13
 CH3COOH         1.301-14
 OHCH2COOH       4.018-16
 C2H5            1.255-15
 C2H6            1.514-16
 C2O             1.5609-9
 *C3             3.525-16
 C3H3,2-propynl  5.210-16
 C3O2            9.667-12
 *H              3.3286-2
 HCO             2.7216-5
 HCCO            3.595-10
 HO2             7.7339-7
 *H2             3.1336-1
 HCHO,formaldehy 1.8052-6
 HCOOH           9.6678-7
 H2O             1.8382-1
 H2O2            2.8076-7
 *O              4.9292-4
 *OH             8.4318-3
 *O2             1.1254-4
 O3              1.621-11

  * THERMODYNAMIC PROPERTIES FITTED TO 20000.K









         THERMODYNAMIC EQUILIBRIUM COMBUSTION PROPERTIES AT ASSIGNED

                                     VOLUME

 CASE =                

             REACTANT                       MOLES         ENERGY      TEMP
                                                         KJ/KG-MOL      K
 FUEL        C8H18,isooctane              1.0000000   -226154.811    300.000
 OXIDANT     O2                          12.5000000     -2439.995    300.000

 O/F=    1.59165  %FUEL= 38.585517  R,EQ.RATIO= 2.200000  PHI,EQ.RATIO= 2.200000

 THERMODYNAMIC PROPERTIES

 P, BAR            31.919
 T, K             3160.22
 RHO, KG/CU M    2.0820 0
 H, KJ/KG          722.35
 U, KJ/KG         -810.76
 G, KJ/KG        -42397.9
 S, KJ/(KG)(K)    13.6447

 M, (1/n)          17.139
 (dLV/dLP)t      -1.00799
 (dLV/dLT)p        1.1455
 Cp, KJ/(KG)(K)    3.6866
 GAMMAs            1.1971
 SON VEL,M/SEC     1354.7

 MOLE FRACTIONS

 *C              1.3553-9
 *CH             1.5656-9
 CH2             9.8483-9
 CH3             5.9026-8
 CH2OH           1.6612-9
 CH3O            4.344-10
 CH4             5.2989-8
 CH3OH           3.499-10
 CH3OOH          1.190-15
 *CO             4.3629-1
 *CO2            2.6826-2
 COOH            2.0040-6
 *C2             2.058-13
 C2H             2.229-11
 C2H2,acetylene  1.3461-9
 C2H2,vinylidene 6.022-12
 CH2CO,ketene    2.1348-9
 O(CH)2O         2.928-12
 HO(CO)2OH       1.388-14
 C2H3,vinyl      1.268-12
 CH3CO,acetyl    3.341-12
 C2H4            1.726-12
 C2H4O,ethylen-o 2.398-16
 CH3CHO,ethanal  2.310-13
 CH3COOH         1.941-14
 OHCH2COOH       4.149-16
 C2H5            2.883-15
 C2H6            4.651-16
 C2O             1.3793-9
 *C3             4.015-16
 C3H3,2-propynl  1.229-15
 C3O2            1.185-11
 *H              2.6157-2
 HCO             2.3745-5
 HCCO            3.838-10
 HO2             2.7759-7
 *H2             3.4283-1
 HCHO,formaldehy 1.9787-6
 HCOOH           8.5576-7
 H2O             1.6262-1
 H2O2            1.2654-7
 *O              2.1160-4
 *OH             4.9970-3
 *O2             3.9307-5
 O3              2.660-12

  * THERMODYNAMIC PROPERTIES FITTED TO 20000.K









         THERMODYNAMIC EQUILIBRIUM COMBUSTION PROPERTIES AT ASSIGNED

                                     VOLUME

 CASE =                

             REACTANT                       MOLES         ENERGY      TEMP
                                                         KJ/KG-MOL      K
 FUEL        C8H18,isooctane              1.0000000   -226154.811    300.000
 OXIDANT     O2                          12.5000000     -2439.995    300.000

 O/F=    1.52244  %FUEL= 39.644092  R,EQ.RATIO= 2.300000  PHI,EQ.RATIO= 2.300000

 THERMODYNAMIC PROPERTIES

 P, BAR            31.459
 T, K             3045.28
 RHO, KG/CU M    2.0820 0
 H, KJ/KG          680.08
 U, KJ/KG         -830.91
 G, KJ/KG        -41155.3
 S, KJ/(KG)(K)    13.7378

 M, (1/n)          16.757
 (dLV/dLP)t      -1.00570
 (dLV/dLT)p        1.1065
 Cp, KJ/(KG)(K)    3.4042
 GAMMAs            1.2088
 SON VEL,M/SEC     1351.5

 MOLE FRACTIONS

 *C              7.348-10
 *CH             1.0457-9
 CH2             9.2362-9
 CH3             8.1152-8
 CH2OH           1.6259-9
 CH3O            3.959-10
 CH4             1.0098-7
 CH3OH           4.585-10
 CH3OOH          7.846-16
 *CO             4.4269-1
 *CO2            2.2541-2
 COOH            1.3458-6
 *C2             1.435-13
 C2H             2.322-11
 C2H2,acetylene  2.3502-9
 C2H2,vinylidene 8.216-12
 CH2CO,ketene    3.1297-9
 O(CH)2O         2.994-12
 HO(CO)2OH       9.197-15
 C2H3,vinyl      2.096-12
 CH3CO,acetyl    4.734-12
 C2H4            4.174-12
 C2H4O,ethylen-o 3.727-16
 CH3CHO,ethanal  4.267-13
 CH3COOH         2.871-14
 OHCH2COOH       4.143-16
 C2H5            6.558-15
 C2H6            1.453-15
 C2O             1.1575-9
 *C3             4.253-16
 C3H3,2-propynl  2.865-15
 C3H4,propyne    1.916-16
 C3O2            1.432-11
 *H              1.9689-2
 HCO             1.9969-5
 HCCO            3.939-10
 HO2             8.9972-8
 *H2             3.7072-1
 HCHO,formaldehy 2.1294-6
 HCOOH           7.4005-7
 H2O             1.4144-1
 H2O2            5.2416-8
 *O              8.3158-5
 *OH             2.7939-3
 *O2             1.2511-5
 O3              3.696-13

  * THERMODYNAMIC PROPERTIES FITTED TO 20000.K









         THERMODYNAMIC EQUILIBRIUM COMBUSTION PROPERTIES AT ASSIGNED

                                     VOLUME

 CASE =                

             REACTANT                       MOLES         ENERGY      TEMP
                                                         KJ/KG-MOL      K
 FUEL        C8H18,isooctane              1.0000000   -226154.811    300.000
 OXIDANT     O2                          12.5000000     -2439.995    300.000

 O/F=    1.45901  %FUEL= 40.666792  R,EQ.RATIO= 2.400000  PHI,EQ.RATIO= 2.400000

 THERMODYNAMIC PROPERTIES

 P, BAR            30.889
 T, K             2925.20
 RHO, KG/CU M    2.0820 0
 H, KJ/KG          633.24
 U, KJ/KG         -850.38
 G, KJ/KG        -39794.0
 S, KJ/(KG)(K)    13.8203

 M, (1/n)          16.393
 (dLV/dLP)t      -1.00393
 (dLV/dLT)p        1.0758
 Cp, KJ/(KG)(K)    3.1715
 GAMMAs            1.2212
 SON VEL,M/SEC     1346.0

 MOLE FRACTIONS

 *C              3.598-10
 *CH             6.410-10
 CH2             8.2061-9
 CH3             1.0986-7
 CH2OH           1.5286-9
 CH3O            3.439-10
 CH4             1.9608-7
 CH3OH           5.934-10
 CH3OOH          4.771-16
 *CO             4.4806-1
 *CO2            1.8822-2
 COOH            8.6291-7
 *C2             9.099-14
 C2H             2.293-11
 C2H2,acetylene  4.1131-9
 C2H2,vinylidene 1.087-11
 CH2CO,ketene    4.5835-9
 O(CH)2O         2.979-12
 HO(CO)2OH       5.838-15
 C2H3,vinyl      3.409-12
 CH3CO,acetyl    6.604-12
 C2H4            1.032-11
 C2H4O,ethylen-o 5.711-16
 CH3CHO,ethanal  7.942-13
 CH3COOH         4.244-14
 OHCH2COOH       4.013-16
 C2H5            1.497-14
 C2H6            4.697-15
 C2O             9.234-10
 *C3             4.213-16
 C3H3,2-propynl  6.704-15
 C3H4,allene     2.716-16
 C3H4,propyne    5.827-16
 C3O2            1.716-11
 *H              1.4163-2
 HCO             1.6174-5
 HCCO            3.898-10
 HO2             2.5998-8
 *H2             3.9672-1
 HCHO,formaldehy 2.2545-6
 HCOOH           6.2467-7
 H2O             1.2072-1
 H2O2            1.9756-8
 *O              2.9614-5
 *OH             1.4640-3
 *O2             3.5807-6
 O3              4.260-14

  * THERMODYNAMIC PROPERTIES FITTED TO 20000.K









         THERMODYNAMIC EQUILIBRIUM COMBUSTION PROPERTIES AT ASSIGNED

                                     VOLUME

 CASE =                

             REACTANT                       MOLES         ENERGY      TEMP
                                                         KJ/KG-MOL      K
 FUEL        C8H18,isooctane              1.0000000   -226154.811    300.000
 OXIDANT     O2                          12.5000000     -2439.995    300.000

 O/F=    1.40065  %FUEL= 41.655412  R,EQ.RATIO= 2.500000  PHI,EQ.RATIO= 2.500000

 THERMODYNAMIC PROPERTIES

 P, BAR            30.217
 T, K             2801.00
 RHO, KG/CU M    2.0820 0
 H, KJ/KG          582.12
 U, KJ/KG         -869.20
 G, KJ/KG        -38330.8
 S, KJ/(KG)(K)    13.8925

 M, (1/n)          16.047
 (dLV/dLP)t      -1.00262
 (dLV/dLT)p        1.0522
 Cp, KJ/(KG)(K)    2.9822
 GAMMAs            1.2342
 SON VEL,M/SEC     1338.4

 MOLE FRACTIONS

 *C              1.584-10
 *CH             3.599-10
 CH2             6.9240-9
 CH3             1.4752-7
 CH2OH           1.3821-9
 CH3O            2.850-10
 CH4             3.9282-7
 CH3OH           7.625-10
 CH3OOH          2.662-16
 *CO             4.5256-1
 *CO2            1.5560-2
 COOH            5.2504-7
 *C2             5.254-14
 C2H             2.160-11
 C2H2,acetylene  7.3106-9
 C2H2,vinylidene 1.408-11
 CH2CO,ketene    6.7648-9
 O(CH)2O         2.891-12
 HO(CO)2OH       3.527-15
 C2H3,vinyl      5.525-12
 CH3CO,acetyl    9.151-12
 C2H4            2.657-11
 C2H4O,ethylen-o 8.720-16
 CH3CHO,ethanal  1.508-12
 CH3COOH         6.316-14
 OHCH2COOH       3.774-16
 C2H5            3.489-14
 C2H6            1.606-14
 C2H5OH          1.567-16
 C2O             7.013-10
 *C3             3.937-16
 C3H3,2-propynl  1.606-14
 C3H4,allene     8.546-16
 C3H4,propyne    1.859-15
 C3O2            2.053-11
 *H              9.7045-3
 HCO             1.2599-5
 HCCO            3.736-10
 HO2             6.5809-9
 *H2             4.2069-1
 HCHO,formaldehy 2.3531-6
 HCOOH           5.1338-7
 H2O             1.0075-1
 H2O2            6.6784-9
 *O              9.4286-6
 *OH             7.1251-4
 *O2             9.0487-7
 O3              3.956-15

  * THERMODYNAMIC PROPERTIES FITTED TO 20000.K









         THERMODYNAMIC EQUILIBRIUM COMBUSTION PROPERTIES AT ASSIGNED

                                     VOLUME

 CASE =                

             REACTANT                       MOLES         ENERGY      TEMP
                                                         KJ/KG-MOL      K
 FUEL        C8H18,isooctane              1.0000000   -226154.811    300.000
 OXIDANT     O2                          12.5000000     -2439.995    300.000

 O/F=    1.34678  %FUEL= 42.611626  R,EQ.RATIO= 2.600000  PHI,EQ.RATIO= 2.600000

 THERMODYNAMIC PROPERTIES

 P, BAR            29.449
 T, K             2673.73
 RHO, KG/CU M    2.0820 0
 H, KJ/KG          527.07
 U, KJ/KG         -887.40
 G, KJ/KG        -36783.0
 S, KJ/(KG)(K)    13.9543

 M, (1/n)          15.717
 (dLV/dLP)t      -1.00167
 (dLV/dLT)p        1.0345
 Cp, KJ/(KG)(K)    2.8317
 GAMMAs            1.2473
 SON VEL,M/SEC     1328.3

 MOLE FRACTIONS

 *C              6.247-11
 *CH             1.851-10
 CH2             5.5725-9
 CH3             1.9843-7
 CH2OH           1.2029-9
 CH3O            2.255-10
 CH4             8.2431-7
 CH3OH           9.780-10
 CH3OOH          1.352-16
 *CO             4.5636-1
 *CO2            1.2659-2
 COOH            3.0050-7
 *C2             2.776-14
 C2H             1.962-11
 C2H2,acetylene  1.3437-8
 C2H2,vinylidene 1.812-11
 CH2CO,ketene    1.0176-8
 O(CH)2O         2.742-12
 HO(CO)2OH       2.004-15
 C2H3,vinyl      9.080-12
 CH3CO,acetyl    1.274-11
 C2H4            7.286-11
 C2H4O,ethylen-o 1.344-15
 CH3CHO,ethanal  2.965-12
 CH3COOH         9.542-14
 OHCH2COOH       3.443-16
 C2H5            8.491-14
 C2H6            5.962-14
 C2H5OH          3.620-16
 C2O             5.087-10
 *C3             3.524-16
 C3H3,2-propynl  4.046-14
 C3H4,allene     2.904-15
 C3H4,propyne    6.412-15
 C3O2            2.473-11
 C4H2,butadiyne  1.683-16
 *H              6.3120-3
 HCO             9.4221-6
 HCCO            3.489-10
 HO2             1.4253-9
 *H2             4.4261-1
 HCHO,formaldehy 2.4260-6
 HCOOH           4.0879-7
 H2O             8.1728-2
 H2O2            1.9847-9
 *O              2.6392-6
 *OH             3.1818-4
 *O2             1.9711-7
 O3              2.849-16

  * THERMODYNAMIC PROPERTIES FITTED TO 20000.K









         THERMODYNAMIC EQUILIBRIUM COMBUSTION PROPERTIES AT ASSIGNED

                                     VOLUME

 CASE =                

             REACTANT                       MOLES         ENERGY      TEMP
                                                         KJ/KG-MOL      K
 FUEL        C8H18,isooctane              1.0000000   -226154.811    300.000
 OXIDANT     O2                          12.5000000     -2439.995    300.000

 O/F=    1.29690  %FUEL= 43.537003  R,EQ.RATIO= 2.700000  PHI,EQ.RATIO= 2.700000

 THERMODYNAMIC PROPERTIES

 P, BAR            28.597
 T, K             2544.51
 RHO, KG/CU M    2.0820 0
 H, KJ/KG          468.52
 U, KJ/KG         -905.02
 G, KJ/KG        -35169.4
 S, KJ/(KG)(K)    14.0058

 M, (1/n)          15.403
 (dLV/dLP)t      -1.00102
 (dLV/dLT)p        1.0218
 Cp, KJ/(KG)(K)    2.7162
 GAMMAs            1.2602
 SON VEL,M/SEC     1315.7

 MOLE FRACTIONS

 *C              2.210-11
 *CH             8.749-11
 CH2             4.3144-9
 CH3             2.7117-7
 CH2OH           1.0083-9
 CH3O            1.702-10
 CH4             1.8478-6
 CH3OH           1.2586-9
 *CO             4.5961-1
 *CO2            1.0030-2
 COOH            1.5964-7
 *C2             1.361-14
 C2H             1.753-11
 C2H2,acetylene  2.6232-8
 C2H2,vinylidene 2.371-11
 CH2CO,ketene    1.5848-8
 O(CH)2O         2.548-12
 HO(CO)2OH       1.050-15
 C2H3,vinyl      1.553-11
 CH3CO,acetyl    1.811-11
 C2H4            2.197-10
 C2H4O,ethylen-o 2.129-15
 CH3CHO,ethanal  6.158-12
 CH3COOH         1.476-13
 OHCH2COOH       3.030-16
 C2H5            2.227-13
 C2H6            2.494-13
 C2H5OH          8.896-16
 C2O             3.551-10
 *C3             3.107-16
 C3H3,2-propynl  1.116-13
 C3H4,allene     1.113-14
 C3H4,propyne    2.501-14
 C3H4,cyclo-     1.446-16
 C3H5,allyl      2.699-16
 C3H6,propylene  2.217-16
 C3O2            3.042-11
 C4H2,butadiyne  6.114-16
 *H              3.8826-3
 HCO             6.7523-6
 HCCO            3.208-10
 HO2             2.557-10
 *H2             4.6257-1
 HCHO,formaldehy 2.4755-6
 HCOOH           3.1246-7
 H2O             6.3769-2
 H2O2            5.037-10
 *O              6.3571-7
 *OH             1.2821-4
 *O2             3.5806-8

  * THERMODYNAMIC PROPERTIES FITTED TO 20000.K









         THERMODYNAMIC EQUILIBRIUM COMBUSTION PROPERTIES AT ASSIGNED

                                     VOLUME

 CASE =                

             REACTANT                       MOLES         ENERGY      TEMP
                                                         KJ/KG-MOL      K
 FUEL        C8H18,isooctane              1.0000000   -226154.811    300.000
 OXIDANT     O2                          12.5000000     -2439.995    300.000

 O/F=    1.25058  %FUEL= 44.433011  R,EQ.RATIO= 2.800000  PHI,EQ.RATIO= 2.800000

 THERMODYNAMIC PROPERTIES

 P, BAR            27.671
 T, K             2414.56
 RHO, KG/CU M    2.0820 0
 H, KJ/KG          406.99
 U, KJ/KG         -922.08
 G, KJ/KG        -33509.3
 S, KJ/(KG)(K)    14.0466

 M, (1/n)          15.105
 (dLV/dLP)t      -1.00060
 (dLV/dLT)p        1.0132
 Cp, KJ/(KG)(K)    2.6311
 GAMMAs            1.2725
 SON VEL,M/SEC     1300.5

 MOLE FRACTIONS

 *C              7.080-12
 *CH             3.852-11
 CH2             3.2701-9
 CH3             3.8522-7
 CH2OH           8.147-10
 CH3O            1.227-10
 CH4             4.5524-6
 CH3OH           1.6338-9
 *CO             4.6245-1
 *CO2            7.5889-3
 COOH            7.6982-8
 *C2             6.382-15
 C2H             1.599-11
 C2H2,acetylene  5.6881-8
 C2H2,vinylidene 3.286-11
 CH2CO,ketene    2.6191-8
 O(CH)2O         2.326-12
 HO(CO)2OH       4.880-16
 C2H3,vinyl      2.888-11
 CH3CO,acetyl    2.693-11
 C2H4            7.654-10
 C2H4O,ethylen-o 3.558-15
 CH3CHO,ethanal  1.390-11
 CH3COOH         2.356-13
 OHCH2COOH       2.538-16
 C2H5            6.608-13
 C2H6            1.240-12
 C2H5OH          2.400-15
 C2O             2.426-10
 *C3             2.851-16
 C3H3,1-propynl  2.107-16
 C3H3,2-propynl  3.609-13
 C3H4,allene     5.172-14
 C3H4,propyne    1.184-13
 C3H4,cyclo-     5.407-16
 C3H5,allyl      1.331-15
 C3H6,propylene  1.615-15
 C3O2            3.908-11
 C4H2,butadiyne  2.753-15
 *H              2.2502-3
 HCO             4.6282-6
 HCCO            2.961-10
 HO2             3.612-11
 *H2             4.8072-1
 HCHO,formaldehy 2.5046-6
 HCOOH           2.2511-7
 H2O             4.6930-2
 H2O2            1.042-10
 *O              1.2781-7
 *OH             4.5437-5
 *O2             5.1542-9

  * THERMODYNAMIC PROPERTIES FITTED TO 20000.K









         THERMODYNAMIC EQUILIBRIUM COMBUSTION PROPERTIES AT ASSIGNED

                                     VOLUME

 CASE =                

             REACTANT                       MOLES         ENERGY      TEMP
                                                         KJ/KG-MOL      K
 FUEL        C8H18,isooctane              1.0000000   -226154.811    300.000
 OXIDANT     O2                          12.5000000     -2439.995    300.000

 O/F=    1.20746  %FUEL= 45.301025  R,EQ.RATIO= 2.900000  PHI,EQ.RATIO= 2.900000

 THERMODYNAMIC PROPERTIES

 P, BAR            26.684
 T, K             2285.03
 RHO, KG/CU M    2.0820 0
 H, KJ/KG          343.04
 U, KJ/KG         -938.60
 G, KJ/KG        -31821.3
 S, KJ/(KG)(K)    14.0761

 M, (1/n)          14.824
 (dLV/dLP)t      -1.00037
 (dLV/dLT)p        1.0077
 Cp, KJ/(KG)(K)    2.5716
 GAMMAs            1.2839
 SON VEL,M/SEC     1282.8

 MOLE FRACTIONS

 *C              2.121-12
 *CH             1.636-11
 CH2             2.5243-9
 CH3             5.9509-7
 CH2OH           6.346-10
 CH3O            8.450-11
 CH4             1.2966-5
 CH3OH           2.1496-9
 *CO             4.6503-1
 *CO2            5.2595-3
 COOH            3.2220-8
 *C2             3.090-15
 C2H             1.615-11
 C2H2,acetylene  1.4979-7
 C2H2,vinylidene 5.254-11
 CH2CO,ketene    4.8136-8
 O(CH)2O         2.090-12
 HO(CO)2OH       1.852-16
 C2H3,vinyl      6.383-11
 CH3CO,acetyl    4.391-11
 C2H4            3.3864-9
 C2H4O,ethylen-o 6.586-15
 CH3CHO,ethanal  3.585-11
 CH3COOH         3.915-13
 OHCH2COOH       1.949-16
 C2H5            2.437-12
 C2H6            8.084-12
 C2H5OH          7.495-15
 C2O             1.686-10
 *C3             3.074-16
 C3H3,1-propynl  6.709-16
 C3H3,2-propynl  1.563-12
 C3H4,allene     3.341-13
 C3H4,propyne    7.808-13
 C3H4,cyclo-     2.745-15
 C3H5,allyl      9.171-15
 C3H6,propylene  1.707-14
 C3O2            5.485-11
 C4H2,butadiyne  1.834-14
 *H              1.2239-3
 HCO             3.0277-6
 HCCO            2.860-10
 HO2             3.651-12
 *H2             4.9722-1
 HCHO,formaldehy 2.5169-6
 HCOOH           1.4678-7
 H2O             3.1230-2
 H2O2            1.601-11
 *O              2.0342-8
 *OH             1.3492-5
 *O2             5.341-10

  * THERMODYNAMIC PROPERTIES FITTED TO 20000.K









         THERMODYNAMIC EQUILIBRIUM COMBUSTION PROPERTIES AT ASSIGNED

                                     VOLUME

 CASE =                

             REACTANT                       MOLES         ENERGY      TEMP
                                                         KJ/KG-MOL      K
 FUEL        C8H18,isooctane              1.0000000   -226154.811    300.000
 OXIDANT     O2                          12.5000000     -2439.995    300.000

 O/F=    1.16721  %FUEL= 46.142338  R,EQ.RATIO= 3.000000  PHI,EQ.RATIO= 3.000000

 THERMODYNAMIC PROPERTIES

 P, BAR            25.647
 T, K             2157.04
 RHO, KG/CU M    2.0820 0
 H, KJ/KG          277.24
 U, KJ/KG         -954.61
 G, KJ/KG        -30122.6
 S, KJ/(KG)(K)    14.0933

 M, (1/n)          14.559
 (dLV/dLP)t      -1.00036
 (dLV/dLT)p        1.0052
 Cp, KJ/(KG)(K)    2.5341
 GAMMAs            1.2942
 SON VEL,M/SEC     1262.7

 MOLE FRACTIONS

 *C              6.619-13
 *CH             7.487-12
 CH2             2.2283-9
 CH3             1.1286-6
 CH2OH           4.766-10
 CH3O            5.554-11
 CH4             4.8454-5
 CH3OH           2.8795-9
 *CO             4.6747-1
 *CO2            2.9661-3
 COOH            1.0367-8
 *C2             1.942-15
 C2H             2.287-11
 C2H2,acetylene  6.1026-7
 C2H2,vinylidene 1.229-10
 CH2CO,ketene    1.1128-7
 O(CH)2O         1.852-12
 C2H3,vinyl      2.133-10
 CH3CO,acetyl    8.879-11
 C2H4            2.4348-8
 C2H4O,ethylen-o 1.529-14
 CH3CHO,ethanal  1.200-10
 CH3COOH         6.825-13
 OHCH2COOH       1.225-16
 C2H5            1.428-11
 C2H6            8.884-11
 C2H5OH          3.085-14
 CH3OCH3         2.940-16
 C2O             1.338-10
 *C3             5.536-16
 C3H3,1-propynl  3.982-15
 C3H3,2-propynl  1.304-11
 C3H4,allene     4.332-12
 C3H4,propyne    1.036-11
 C3H4,cyclo-     2.727-14
 C3H5,allyl      1.275-13
 C3H6,propylene  3.798-13
 C3H6,cyclo-     1.591-15
 C3H6O,acetone   6.471-16
 C3H6O,propanal  5.052-16
 C3H8            4.083-16
 C3O2            9.497-11
 C4H2,butadiyne  2.934-13
 C4H6,butadiene  4.660-16
 *H              6.2234-4
 HCO             1.8862-6
 HCCO            3.254-10
 HO2             2.059-13
 *H2             5.1220-1
 HCHO,formaldehy 2.5160-6
 HCOOH           7.7018-8
 H2O             1.6686-2
 H2O2            1.430-12
 *O              2.2514-9
 *OH             2.9627-6
 *O2             3.105-11

  * THERMODYNAMIC PROPERTIES FITTED TO 20000.K









         THERMODYNAMIC EQUILIBRIUM COMBUSTION PROPERTIES AT ASSIGNED

                                     VOLUME

 CASE =                

             REACTANT                       MOLES         ENERGY      TEMP
                                                         KJ/KG-MOL      K
 FUEL        C8H18,isooctane              1.0000000   -226154.811    300.000
 OXIDANT     O2                          12.5000000     -2439.995    300.000

 O/F=    1.12956  %FUEL= 46.958163  R,EQ.RATIO= 3.100000  PHI,EQ.RATIO= 3.100000

 THERMODYNAMIC PROPERTIES

 P, BAR            24.584
 T, K             2033.80
 RHO, KG/CU M    2.0820 0
 H, KJ/KG          210.64
 U, KJ/KG         -970.14
 G, KJ/KG        -28454.5
 S, KJ/(KG)(K)    14.0944

 M, (1/n)          14.321
 (dLV/dLP)t      -1.00181
 (dLV/dLT)p        1.0131
 Cp, KJ/(KG)(K)    2.5464
 GAMMAs            1.3024
 SON VEL,M/SEC     1240.1

 MOLE FRACTIONS

 *C              4.371-13
 *CH             7.457-12
 CH2             4.4991-9
 CH3             5.1993-6
 CH2OH           3.465-10
 CH3O            3.506-11
 CH4             4.6582-4
 CH3OH           3.9115-9
 *CO             4.6978-1
 *CO2            6.8747-4
 COOH            1.3050-9
 *C2             6.361-15
 C2H             1.802-10
 C2H2,acetylene  1.5046-5
 C2H2,vinylidene 1.6594-9
 CH2CO,ketene    6.3901-7
 O(CH)2O         1.624-12
 C2H3,vinyl      4.2287-9
 CH3CO,acetyl    4.407-10
 C2H4            1.1040-6
 C2H4O,ethylen-o 8.798-14
 CH3CHO,ethanal  1.0243-9
 CH3COOH         1.240-12
 C2H5            5.176-10
 C2H6            6.3476-9
 C2H5OH          3.277-13
 CH3OCH3         2.646-15
 C2O             2.429-10
 *C3             1.315-14
 C3H3,1-propynl  3.424-13
 C3H3,2-propynl  1.6220-9
 C3H4,allene     8.667-10
 C3H4,propyne    2.1234-9
 C3H4,cyclo-     4.091-12
 C3H5,allyl      2.746-11
 C3H6,propylene  1.357-10
 C3H6,cyclo-     5.021-13
 C3H6O,acetone   4.661-14
 C3H6O,propanal  3.198-14
 C3H7,n-propyl   1.781-14
 C3H7,i-propyl   1.431-14
 C3H8            2.194-13
 C3O2            4.025-10
 C4H2,butadiyne  1.725-10
 C4H4,1,3-cyclo- 1.580-15
 C4H6,butadiene  8.287-13
 C4H6,1butyne    7.996-14
 C4H6,2butyne    6.055-14
 C4H6,cyclo-     1.901-15
 C4H8,1-butene   4.333-15
 C4H8,cis2-buten 1.694-15
 C4H8,tr2-butene 1.905-15
 C4H8,isobutene  2.068-15
 C5H6,1,3cyclo-  3.480-15
 C6H2            2.084-15
 C6H6            2.587-15
 *H              2.9868-4
 HCO             1.1266-6
 HCCO            8.698-10
 HO2             1.692-15
 *H2             5.2513-1
 HCHO,formaldehy 2.5021-6
 HCOOH           1.6449-8
 H2O             3.6144-3
 H2O2            1.927-14
 *O              8.951-11
 *OH             2.4605-7
 *O2             2.644-13

  * THERMODYNAMIC PROPERTIES FITTED TO 20000.K









         THERMODYNAMIC EQUILIBRIUM COMBUSTION PROPERTIES AT ASSIGNED

                                     VOLUME

 CASE =                

             REACTANT                       MOLES         ENERGY      TEMP
                                                         KJ/KG-MOL      K
 FUEL        C8H18,isooctane              1.0000000   -226154.811    300.000
 OXIDANT     O2                          12.5000000     -2439.995    300.000

 O/F=    1.09426  %FUEL= 47.749640  R,EQ.RATIO= 3.200000  PHI,EQ.RATIO= 3.200000

 THERMODYNAMIC PROPERTIES

 P, BAR            23.826
 T, K             1966.43
 RHO, KG/CU M    2.0820 0
 H, KJ/KG          159.18
 U, KJ/KG         -985.21
 G, KJ/KG        -27509.7
 S, KJ/(KG)(K)    14.0707

 M, (1/n)          14.287
 MW, MOL WT        14.171
 (dLV/dLP)t      -1.00414
 (dLV/dLT)p        1.0258
 Cp, KJ/(KG)(K)    2.6373
 GAMMAs            1.2954
 SON VEL,M/SEC     1217.6

 MOLE FRACTIONS

 *C              6.067-13
 *CH             1.317-11
 CH2             1.2060-8
 CH3             2.2729-5
 CH2OH           2.757-10
 CH3O            2.567-11
 CH4             3.1533-3
 CH3OH           4.5045-9
 *CO             4.6168-1
 *CO2            1.5455-4
 COOH            2.022-10
 *C2             4.113-14
 C2H             1.9639-9
 C2H2,acetylene  3.2307-4
 C2H2,vinylidene 2.4800-8
 CH2CO,ketene    3.1536-6
 O(CH)2O         1.431-12
 C2H3,vinyl      7.9162-8
 CH3CO,acetyl    1.9827-9
 C2H4            3.3775-5
 C2H4O,ethylen-o 4.302-13
 CH3CHO,ethanal  6.3414-9
 CH3COOH         1.674-12
 C2H5            1.3766-8
 C2H6            2.5229-7
 C2H5OH          2.288-12
 CH3OCH3         1.673-14
 C2O             6.080-10
 *C3             4.974-13
 C3H3,1-propynl  2.758-11
 C3H3,2-propynl  1.6309-7
 C3H4,allene     1.1531-7
 C3H4,propyne    2.8664-7
 C3H4,cyclo-     4.579-10
 C3H5,allyl      3.7996-9
 C3H6,propylene  2.5275-8
 C3H6,cyclo-     8.689-11
 C3H6O,propylox  2.482-16
 C3H6O,acetone   1.831-12
 C3H6O,propanal  1.163-12
 C3H7,n-propyl   2.792-12
 C3H7,i-propyl   2.301-12
 C3H8            5.164-11
 C3H8O,1propanol 4.117-16
 C3H8O,2propanol 3.901-16
 C3O2            1.6475-9
 C4H2,butadiyne  7.9077-8
 C4H4,1,3-cyclo- 8.238-13
 C4H6,butadiene  7.241-10
 C4H6,1butyne    6.386-11
 C4H6,2butyne    5.080-11
 C4H6,cyclo-     1.546-12
 C4H8,1-butene   4.785-12
 C4H8,cis2-buten 1.915-12
 C4H8,tr2-butene 2.152-12
 C4H8,isobutene  2.363-12
 C4H8,cyclo-     2.367-15
 C4H9,n-butyl    1.225-15
 C4H9,i-butyl    6.721-16
 C4H9,s-butyl    8.018-16
 C4H9,t-butyl    1.757-16
 C4H10,n-butane  1.094-14
 C4H10,isobutane 3.520-15
 C5H6,1,3cyclo-  1.710-11
 C5H8,cyclo-     2.654-14
 C5H10,1-pentene 7.422-16
 C6H2            2.042-11
 C6H5,phenyl     2.434-13
 C6H5O,phenoxy   2.291-16
 C6H6            8.233-11
 C6H5OH,phenol   3.858-15
 C7H7,benzyl     1.908-14
 C7H8            8.816-14
 C8H8,styrene    4.381-15
 C10H8,naphthale 1.990-16
 *H              1.9086-4
 HCO             8.0580-7
 HCCO            2.7286-9
 *H2             5.2550-1
 HCHO,formaldehy 2.4169-6
 HCOOH           3.4836-9
 H2O             7.8407-4
 H2O2            4.355-16
 *O              7.114-12
 *OH             3.0216-8
 *O2             4.592-15
 C(gr)           8.1496-3

  * THERMODYNAMIC PROPERTIES FITTED TO 20000.K









         THERMODYNAMIC EQUILIBRIUM COMBUSTION PROPERTIES AT ASSIGNED

                                     VOLUME

 CASE =                

             REACTANT                       MOLES         ENERGY      TEMP
                                                         KJ/KG-MOL      K
 FUEL        C8H18,isooctane              1.0000000   -226154.811    300.000
 OXIDANT     O2                          12.5000000     -2439.995    300.000

 O/F=    1.06110  %FUEL= 48.517845  R,EQ.RATIO= 3.300000  PHI,EQ.RATIO= 3.300000

 THERMODYNAMIC PROPERTIES

 P, BAR            23.229
 T, K             1915.12
 RHO, KG/CU M    2.0820 0
 H, KJ/KG          115.88
 U, KJ/KG         -999.83
 G, KJ/KG        -26777.7
 S, KJ/(KG)(K)    14.0428

 M, (1/n)          14.272
 MW, MOL WT        13.956
 (dLV/dLP)t      -1.00479
 (dLV/dLT)p        1.0305
 Cp, KJ/(KG)(K)    2.6646
 GAMMAs            1.2943
 SON VEL,M/SEC     1201.7

 MOLE FRACTIONS

 *C              1.895-13
 *CH             5.012-12
 CH2             6.4531-9
 CH3             1.8120-5
 CH2OH           2.275-10
 CH3O            1.982-11
 CH4             3.5949-3
 CH3OH           5.0301-9
 *CO             4.4775-1
 *CO2            1.8675-4
 COOH            1.815-10
 *C2             1.077-14
 C2H             7.867-10
 C2H2,acetylene  2.2471-4
 C2H2,vinylidene 1.2860-8
 CH2CO,ketene    2.7421-6
 O(CH)2O         1.268-12
 C2H3,vinyl      4.9420-8
 CH3CO,acetyl    1.6053-9
 C2H4            3.1476-5
 C2H4O,ethylen-o 3.739-13
 CH3CHO,ethanal  6.6661-9
 CH3COOH         2.110-12
 C2H5            1.1490-8
 C2H6            2.9242-7
 C2H5OH          2.668-12
 CH3OCH3         1.800-14
 C2O             3.034-10
 *C3             1.311-13
 C3H3,1-propynl  1.354-11
 C3H3,2-propynl  9.5772-8
 C3H4,allene     8.5205-8
 C3H4,propyne    2.1431-7
 C3H4,cyclo-     2.943-10
 C3H5,allyl      2.9084-9
 C3H6,propylene  2.4678-8
 C3H6,cyclo-     7.996-11
 C3H6O,propylox  2.285-16
 C3H6O,acetone   2.085-12
 C3H6O,propanal  1.245-12
 C3H7,n-propyl   2.379-12
 C3H7,i-propyl   2.001-12
 C3H8            6.132-11
 C3H8O,1propanol 4.938-16
 C3H8O,2propanol 4.773-16
 C3O2            1.2138-9
 C4H2,butadiyne  3.8133-8
 C4H4,1,3-cyclo- 4.437-13
 C4H6,butadiene  5.968-10
 C4H6,1butyne    4.887-11
 C4H6,2butyne    4.045-11
 C4H6,cyclo-     1.200-12
 C4H8,1-butene   4.790-12
 C4H8,cis2-buten 1.954-12
 C4H8,tr2-butene 2.195-12
 C4H8,isobutene  2.431-12
 C4H8,cyclo-     2.259-15
 C4H9,n-butyl    1.090-15
 C4H9,i-butyl    6.063-16
 C4H9,s-butyl    7.159-16
 C4H9,t-butyl    1.638-16
 C4H10,n-butane  1.328-14
 C4H10,isobutane 4.331-15
 C5H6,1,3cyclo-  1.375-11
 C5H8,cyclo-     2.505-14
 C5H10,1-pentene 7.651-16
 C6H2            6.834-12
 C6H5,phenyl     1.415-13
 C6H5O,phenoxy   1.673-16
 C6H6            7.241-11
 C6H5OH,phenol   3.555-15
 C7H7,benzyl     1.339-14
 C7H8            8.139-14
 C8H8,styrene    3.418-15
 C10H8,naphthale 1.546-16
 *H              1.3232-4
 HCO             6.0632-7
 HCCO            1.6393-9
 *H2             5.2498-1
 HCHO,formaldehy 2.3266-6
 HCOOH           4.0381-9
 H2O             9.3381-4
 H2O2            3.421-16
 *O              3.741-12
 *OH             2.2648-8
 *O2             2.897-15
 C(gr)           2.2138-2

  * THERMODYNAMIC PROPERTIES FITTED TO 20000.K









         THERMODYNAMIC EQUILIBRIUM COMBUSTION PROPERTIES AT ASSIGNED

                                     VOLUME

 CASE =                

             REACTANT                       MOLES         ENERGY      TEMP
                                                         KJ/KG-MOL      K
 FUEL        C8H18,isooctane              1.0000000   -226154.811    300.000
 OXIDANT     O2                          12.5000000     -2439.995    300.000

 O/F=    1.02989  %FUEL= 49.263788  R,EQ.RATIO= 3.400000  PHI,EQ.RATIO= 3.400000

 THERMODYNAMIC PROPERTIES

 P, BAR            22.661
 T, K             1866.59
 RHO, KG/CU M    2.0820 0
 H, KJ/KG          74.385
 U, KJ/KG        -1014.03
 G, KJ/KG        -26084.4
 S, KJ/(KG)(K)    14.0142

 M, (1/n)          14.259
 MW, MOL WT        13.757
 (dLV/dLP)t      -1.00556
 (dLV/dLT)p        1.0363
 Cp, KJ/(KG)(K)    2.7000
 GAMMAs            1.2926
 SON VEL,M/SEC     1186.1

 MOLE FRACTIONS

 *C              5.945-14
 *CH             1.914-12
 CH2             3.4586-9
 CH3             1.4449-5
 CH2OH           1.879-10
 CH3O            1.533-11
 CH4             4.0966-3
 CH3OH           5.6200-9
 *CO             4.3467-1
 *CO2            2.2611-4
 COOH            1.633-10
 *C2             2.829-15
 C2H             3.160-10
 C2H2,acetylene  1.5642-4
 C2H2,vinylidene 6.6785-9
 CH2CO,ketene    2.3873-6
 O(CH)2O         1.128-12
 C2H3,vinyl      3.0880-8
 CH3CO,acetyl    1.3021-9
 C2H4            2.9323-5
 C2H4O,ethylen-o 3.254-13
 CH3CHO,ethanal  7.0126-9
 CH3COOH         2.665-12
 C2H5            9.5901-9
 C2H6            3.3860-7
 C2H5OH          3.113-12
 CH3OCH3         1.939-14
 C2O             1.519-10
 *C3             3.466-14
 C3H3,1-propynl  6.654-12
 C3H3,2-propynl  5.6300-8
 C3H4,allene     6.2992-8
 C3H4,propyne    1.6029-7
 C3H4,cyclo-     1.893-10
 C3H5,allyl      2.2274-9
 C3H6,propylene  2.4084-8
 C3H6,cyclo-     7.359-11
 C3H6O,propylox  2.107-16
 C3H6O,acetone   2.375-12
 C3H6O,propanal  1.333-12
 C3H7,n-propyl   2.026-12
 C3H7,i-propyl   1.739-12
 C3H8            7.274-11
 C3H8O,1propanol 5.925-16
 C3H8O,2propanol 5.842-16
 C3O2            8.973-10
 C4H2,butadiyne  1.8422-8
 C4H4,1,3-cyclo- 2.394-13
 C4H6,butadiene  4.925-10
 C4H6,1butyne    3.741-11
 C4H6,2butyne    3.222-11
 C4H6,cyclo-     9.327-13
 C4H8,1-butene   4.792-12
 C4H8,cis2-buten 1.991-12
 C4H8,tr2-butene 2.237-12
 C4H8,isobutene  2.500-12
 C4H8,cyclo-     2.155-15
 C4H9,n-butyl    9.702-16
 C4H9,i-butyl    5.468-16
 C4H9,s-butyl    6.391-16
 C4H9,t-butyl    1.527-16
 C4H10,n-butane  1.610-14
 C4H10,isobutane 5.323-15
 C5H6,1,3cyclo-  1.105-11
 C5H8,cyclo-     2.364-14
 C5H10,1-pentene 7.880-16
 C6H2            2.294-12
 C6H5,phenyl     8.237-14
 C6H5O,phenoxy   1.224-16
 C6H6            6.367-11
 C6H5OH,phenol   3.280-15
 C7H7,benzyl     9.398-15
 C7H8            7.512-14
 C8H8,styrene    2.667-15
 C10H8,naphthale 1.201-16
 *H              9.1876-5
 HCO             4.5705-7
 HCCO            9.874-10
 *H2             5.2436-1
 HCHO,formaldehy 2.2419-6
 HCOOH           4.6919-9
 H2O             1.1126-3
 H2O2            2.697-16
 *O              1.974-12
 *OH             1.7014-8
 *O2             1.836-15
 C(gr)           3.5241-2

  * THERMODYNAMIC PROPERTIES FITTED TO 20000.K









         THERMODYNAMIC EQUILIBRIUM COMBUSTION PROPERTIES AT ASSIGNED

                                     VOLUME

 CASE =                

             REACTANT                       MOLES         ENERGY      TEMP
                                                         KJ/KG-MOL      K
 FUEL        C8H18,isooctane              1.0000000   -226154.811    300.000
 OXIDANT     O2                          12.5000000     -2439.995    300.000

 O/F=    1.00046  %FUEL= 49.988423  R,EQ.RATIO= 3.500000  PHI,EQ.RATIO= 3.500000

 THERMODYNAMIC PROPERTIES

 P, BAR            22.121
 T, K             1820.78
 RHO, KG/CU M    2.0820 0
 H, KJ/KG          34.652
 U, KJ/KG        -1027.83
 G, KJ/KG        -25429.1
 S, KJ/(KG)(K)    13.9851

 M, (1/n)          14.249
 MW, MOL WT        13.571
 (dLV/dLP)t      -1.00644
 (dLV/dLT)p        1.0433
 Cp, KJ/(KG)(K)    2.7436
 GAMMAs            1.2904
 SON VEL,M/SEC     1170.9

 MOLE FRACTIONS

 *C              1.880-14
 *CH             7.358-13
 CH2             1.8610-9
 CH3             1.1533-5
 CH2OH           1.556-10
 CH3O            1.190-11
 CH4             4.6640-3
 CH3OH           6.2785-9
 *CO             4.2233-1
 *CO2            2.7398-4
 COOH            1.473-10
 *C2             7.503-16
 C2H             1.277-10
 C2H2,acetylene  1.0912-4
 C2H2,vinylidene 3.4815-9
 CH2CO,ketene    2.0820-6
 O(CH)2O         1.005-12
 C2H3,vinyl      1.9347-8
 CH3CO,acetyl    1.0587-9
 C2H4            2.7317-5
 C2H4O,ethylen-o 2.838-13
 CH3CHO,ethanal  7.3798-9
 CH3COOH         3.368-12
 C2H5            8.0099-9
 C2H6            3.9147-7
 C2H5OH          3.630-12
 CH3OCH3         2.088-14
 C2O             7.652-11
 *C3             9.241-15
 C3H3,1-propynl  3.284-12
 C3H3,2-propynl  3.3198-8
 C3H4,allene     4.6644-8
 C3H4,propyne    1.2007-7
 C3H4,cyclo-     1.221-10
 C3H5,allyl      1.7086-9
 C3H6,propylene  2.3495-8
 C3H6,cyclo-     6.774-11
 C3H6O,propylox  1.945-16
 C3H6O,acetone   2.704-12
 C3H6O,propanal  1.428-12
 C3H7,n-propyl   1.727-12
 C3H7,i-propyl   1.513-12
 C3H8            8.614-11
 C3H8O,1propanol 7.106-16
 C3H8O,2propanol 7.147-16
 C3O2            6.662-10
 C4H2,butadiyne  8.9401-9
 C4H4,1,3-cyclo- 1.296-13
 C4H6,butadiene  4.071-10
 C4H6,1butyne    2.868-11
 C4H6,2butyne    2.569-11
 C4H6,cyclo-     7.258-13
 C4H8,1-butene   4.792-12
 C4H8,cis2-buten 2.029-12
 C4H8,tr2-butene 2.278-12
 C4H8,isobutene  2.570-12
 C4H8,cyclo-     2.057-15
 C4H9,n-butyl    8.636-16
 C4H9,i-butyl    4.932-16
 C4H9,s-butyl    5.706-16
 C4H9,t-butyl    1.423-16
 C4H10,n-butane  1.950-14
 C4H10,isobutane 6.531-15
 C5H6,1,3cyclo-  8.900-12
 C5H8,cyclo-     2.231-14
 C5H10,1-pentene 8.108-16
 C6H2            7.757-13
 C6H5,phenyl     4.811-14
 C6H6            5.601-11
 C6H5OH,phenol   3.030-15
 C7H7,benzyl     6.613-15
 C7H8            6.934-14
 C8H8,styrene    2.084-15
 *H              6.3979-5
 HCO             3.4546-7
 HCCO            5.973-10
 *H2             5.2363-1
 HCHO,formaldehy 2.1626-6
 HCOOH           5.4594-9
 H2O             1.3250-3
 H2O2            2.134-16
 *O              1.049-12
 *OH             1.2820-8
 *O2             1.170-15
 C(gr)           4.7552-2

  * THERMODYNAMIC PROPERTIES FITTED TO 20000.K









         THERMODYNAMIC EQUILIBRIUM COMBUSTION PROPERTIES AT ASSIGNED

                                     VOLUME

 CASE =                

             REACTANT                       MOLES         ENERGY      TEMP
                                                         KJ/KG-MOL      K
 FUEL        C8H18,isooctane              1.0000000   -226154.811    300.000
 OXIDANT     O2                          12.5000000     -2439.995    300.000

 O/F=    0.97267  %FUEL= 50.692651  R,EQ.RATIO= 3.600000  PHI,EQ.RATIO= 3.600000

 THERMODYNAMIC PROPERTIES

 P, BAR            21.608
 T, K             1777.64
 RHO, KG/CU M    2.0820 0
 H, KJ/KG         -3.3737
 U, KJ/KG        -1041.23
 G, KJ/KG        -24810.9
 S, KJ/(KG)(K)    13.9553

 M, (1/n)          14.241
 MW, MOL WT        13.399
 (dLV/dLP)t      -1.00746
 (dLV/dLT)p        1.0517
 Cp, KJ/(KG)(K)    2.7961
 GAMMAs            1.2878
 SON VEL,M/SEC     1156.1

 MOLE FRACTIONS

 *C              6.019-15
 *CH             2.857-13
 CH2             1.0076-9
 CH3             9.2234-6
 CH2OH           1.291-10
 CH3O            9.268-12
 CH4             5.3021-3
 CH3OH           7.0093-9
 *CO             4.1068-1
 *CO2            3.3190-4
 COOH            1.333-10
 *C2             2.017-16
 C2H             5.213-11
 C2H2,acetylene  7.6381-5
 C2H2,vinylidene 1.8263-9
 CH2CO,ketene    1.8192-6
 O(CH)2O         8.992-13
 C2H3,vinyl      1.2175-8
 CH3CO,acetyl    8.634-10
 C2H4            2.5454-5
 C2H4O,ethylen-o 2.481-13
 CH3CHO,ethanal  7.7662-9
 CH3COOH         4.255-12
 C2H5            6.6993-9
 C2H6            4.5168-7
 C2H5OH          4.229-12
 CH3OCH3         2.249-14
 C2O             3.885-11
 *C3             2.496-15
 C3H3,1-propynl  1.632-12
 C3H3,2-propynl  1.9675-8
 C3H4,allene     3.4632-8
 C3H4,propyne    9.0166-8
 C3H4,cyclo-     7.908-11
 C3H5,allyl      1.3139-9
 C3H6,propylene  2.2915-8
 C3H6,cyclo-     6.240-11
 C3H6O,propylox  1.799-16
 C3H6O,acetone   3.077-12
 C3H6O,propanal  1.529-12
 C3H7,n-propyl   1.474-12
 C3H7,i-propyl   1.317-12
 C3H8            1.018-10
 C3H8O,1propanol 8.510-16
 C3H8O,2propanol 8.729-16
 C3O2            4.970-10
 C4H2,butadiyne  4.3699-9
 C4H4,1,3-cyclo- 7.062-14
 C4H6,butadiene  3.373-10
 C4H6,1butyne    2.203-11
 C4H6,2butyne    2.052-11
 C4H6,cyclo-     5.662-13
 C4H8,1-butene   4.790-12
 C4H8,cis2-buten 2.065-12
 C4H8,tr2-butene 2.318-12
 C4H8,isobutene  2.638-12
 C4H8,cyclo-     1.964-15
 C4H9,n-butyl    7.692-16
 C4H9,i-butyl    4.453-16
 C4H9,s-butyl    5.098-16
 C4H9,t-butyl    1.327-16
 C4H10,n-butane  2.355-14
 C4H10,isobutane 7.994-15
 C5H6,1,3cyclo-  7.180-12
 C5H8,cyclo-     2.107-14
 C5H10,1-pentene 8.335-16
 C6H2            2.652-13
 C6H5,phenyl     2.825-14
 C6H6            4.932-11
 C6H5OH,phenol   2.803-15
 C7H7,benzyl     4.670-15
 C7H8            6.403-14
 C8H8,styrene    1.631-15
 *H              4.4738-5
 HCO             2.6203-7
 HCCO            3.635-10
 *H2             5.2280-1
 HCHO,formaldehy 2.0881-6
 HCOOH           6.3553-9
 H2O             1.5758-3
 H2O2            1.696-16
 *O              5.613-13
 *OH             9.6980-9
 *O2             7.508-16
 C(gr)           5.9154-2

  * THERMODYNAMIC PROPERTIES FITTED TO 20000.K



