 *******************************************************************************

         NASA-GLENN CHEMICAL EQUILIBRIUM PROGRAM CEA2, FEBRUARY 5, 2004
                   BY  BONNIE MCBRIDE AND SANFORD GORDON
      REFS: NASA RP-1311, PART I, 1994 AND NASA RP-1311, PART II, 1996

 *******************************************************************************



  
 ### CEA analysis performed on Mon 11-Jul-2022 13:38:51
  
 # Problem Type: "Combustion at Assigned Volume"
  
 prob case=test___________5469 uv
  
 # Density (1 value):
 rho,kg/m**3= 1.0712
  
 # Equivalence based on Fuel/Oxid. wt ratio (Eq 9.19*) (1 value):
 phi= 2.4
  
 # You selected the following fuels and oxidizers:
 reac
 fuel CH4              mole=100.0000  t,k= 300.000
 oxid Air              mole=100.0000  t,k= 300.000
  
 # You selected these options for output:
 # short version of output
 output short
 # Proportions of any products will be expressed as Mole Fractions.
 # Heat will be expressed as siunits
 output siunits
 # Trace variable:
 output trace=1e-16
  
 # Input prepared by this script:/var/www/sites/cearun.grc.nasa.gov/cgi-bin/CEARU
 N/prepareInputFile.cgi
  
 ### IMPORTANT:  The following line is the end of your CEA input file!
 end




         THERMODYNAMIC EQUILIBRIUM COMBUSTION PROPERTIES AT ASSIGNED

                                     VOLUME

 CASE = test___________

             REACTANT                       MOLES         ENERGY      TEMP
                                                         KJ/KG-MOL      K
 FUEL        CH4                        100.0000000    -77028.260    300.000
 OXIDANT     Air                        100.0000000     -2566.042    300.000

 O/F=    7.18272  %FUEL= 12.220879  R,EQ.RATIO= 2.397871  PHI,EQ.RATIO= 2.400000

 THERMODYNAMIC PROPERTIES

 P, BAR            6.8700
 T, K             1647.84
 RHO, KG/CU M    1.0712 0
 H, KJ/KG         -23.214
 U, KJ/KG         -664.55
 G, KJ/KG        -17569.7
 S, KJ/(KG)(K)    10.6481

 M, (1/n)          21.363
 (dLV/dLP)t      -1.00003
 (dLV/dLT)p        1.0003
 Cp, KJ/(KG)(K)    1.7245
 GAMMAs            1.2916
 SON VEL,M/SEC      910.1

 MOLE FRACTIONS

 *Ar             6.0630-3
 CH2             9.885-14
 CH3             1.2386-9
 CH2OH           1.413-12
 CH3O            8.251-14
 CH4             8.6098-7
 CH3OH           7.712-11
 *CN             1.077-12
 *CO             1.4531-1
 *CO2            1.7630-2
 COOH            1.0044-9
 C2H2,acetylene  2.954-11
 C2H2,vinylidene 2.700-16
 CH2CO,ketene    1.061-10
 O(CH)2O         4.094-15
 C2H3,vinyl      1.235-15
 CH3CN           1.727-12
 CH3CO,acetyl    1.500-14
 C2H4            3.569-12
 CH3CHO,ethanal  1.178-13
 CH3COOH         8.579-15
 C2H5            2.454-16
 C2H6            1.807-14
 OCCN            3.728-15
 C2N2            4.660-14
 C2O             2.660-15
 C3O2            1.481-14
 *H              1.6444-5
 HCN             1.8157-6
 HCO             1.5197-8
 HCCO            1.700-14
 HNC             4.1075-8
 HNCO            2.0561-7
 HNO             2.762-12
 HNO2            2.038-15
 HO2             5.837-15
 *H2             2.3436-1
 HCHO,formaldehy 1.0119-7
 HCOOH           4.1531-8
 H2O             9.1073-2
 H2O2            1.856-13
 *N              5.157-13
 NCO             4.574-12
 *NH             1.836-11
 NH2             4.7906-9
 NH3             2.3024-5
 NH2OH           1.442-13
 *NO             7.0097-9
 NO2             2.436-16
 *N2             5.0551-1
 N2O             9.016-13
 N2H2            1.604-13
 N2H4            1.099-15
 N3H             4.500-16
 *O              1.636-11
 *OH             3.3307-7
 *O2             2.880-12

  * THERMODYNAMIC PROPERTIES FITTED TO 20000.K
