*******************************************************************************

         NASA-GLENN CHEMICAL EQUILIBRIUM PROGRAM CEA2, FEBRUARY 5, 2004
                   BY  BONNIE MCBRIDE AND SANFORD GORDON
      REFS: NASA RP-1311, PART I, 1994 AND NASA RP-1311, PART II, 1996

 *******************************************************************************



  
 ### CEA analysis performed on Mon 11-Jul-2022 13:33:38
  
 # Problem Type: "Combustion at Assigned Volume"
  
 prob case=test___________5469 uv
  
 # Density (1 value):
 rho,kg/m**3= 1.0857
  
 # Equivalence based on Fuel/Oxid. wt ratio (Eq 9.19*) (1 value):
 phi= 2
  
 # You selected the following fuels and oxidizers:
 reac
 fuel CH4              mole=100.0000  t,k= 300.000
 oxid Air              mole=100.0000  t,k= 300.000
  
 # You selected these options for output:
 # short version of output
 output short
 # Proportions of any products will be expressed as Mole Fractions.
 # Heat will be expressed as siunits
 output siunits
 # Trace variable:
 output trace=1e-16
  
 # Input prepared by this script:/var/www/sites/cearun.grc.nasa.gov/cgi-bin/CEARU
 N/prepareInputFile.cgi
  
 ### IMPORTANT:  The following line is the end of your CEA input file!
 end




         THERMODYNAMIC EQUILIBRIUM COMBUSTION PROPERTIES AT ASSIGNED

                                     VOLUME

 CASE = test___________

             REACTANT                       MOLES         ENERGY      TEMP
                                                         KJ/KG-MOL      K
 FUEL        CH4                        100.0000000    -77028.260    300.000
 OXIDANT     Air                        100.0000000     -2566.042    300.000

 O/F=    8.61926  %FUEL= 10.395809  R,EQ.RATIO= 1.998479  PHI,EQ.RATIO= 2.000000

 THERMODYNAMIC PROPERTIES

 P, BAR            7.6549
 T, K             1931.71
 RHO, KG/CU M    1.0857 0
 H, KJ/KG          126.53
 U, KJ/KG         -578.54
 G, KJ/KG        -19965.0
 S, KJ/(KG)(K)    10.4009

 M, (1/n)          22.780
 (dLV/dLP)t      -1.00005
 (dLV/dLT)p        1.0012
 Cp, KJ/(KG)(K)    1.6933
 GAMMAs            1.2755
 SON VEL,M/SEC      948.3

 MOLE FRACTIONS

 *Ar             6.5995-3
 *C              1.744-16
 *CH             1.390-15
 CH2             5.142-13
 CH3             4.070-10
 CH2OH           2.245-12
 CH3O            1.999-13
 CH4             2.3073-8
 CH3OH           1.444-11
 *CN             1.340-11
 *CO             1.2610-1
 *CO2            2.1737-2
 COOH            7.4890-9
 C2H2,acetylene  3.308-12
 C2H2,vinylidene 2.086-16
 CH2CO,ketene    1.667-11
 O(CH)2O         3.403-15
 C2H3,vinyl      2.424-16
 CH3CN           3.189-14
 CH3CO,acetyl    3.211-15
 C2H4            4.349-14
 CH3CHO,ethanal  3.933-15
 CH3COOH         5.211-16
 OCCN            1.391-14
 C2N2            2.089-14
 C2O             2.142-14
 C3O2            6.748-15
 *H              1.4947-4
 HCN             7.7473-7
 HCO             5.9681-8
 HCCO            3.501-14
 HNC             3.4236-8
 HNCO            1.6608-7
 HNO             2.029-10
 HNO2            6.388-13
 HO2             4.097-12
 *H2             1.6905-1
 HCHO,formaldehy 6.7883-8
 HCOOH           4.9241-8
 H2O             1.2609-1
 H2O2            2.354-11
 *N              8.714-11
 NCO             6.359-11
 *NH             7.488-10
 NH2             2.7350-8
 NH3             8.9939-6
 NH2OH           1.670-12
 *NO             5.2358-7
 NO2             2.819-13
 *N2             5.5025-1
 N2O             7.123-11
 NCN             1.679-16
 N2H2            1.340-12
 N2H4            2.000-15
 N3              8.499-16
 N3H             1.165-14
 *O              6.3971-9
 *OH             1.1080-5
 *O2             2.0732-9

  * THERMODYNAMIC PROPERTIES FITTED TO 20000.K


