*******************************************************************************

         NASA-GLENN CHEMICAL EQUILIBRIUM PROGRAM CEA2, FEBRUARY 5, 2004
                   BY  BONNIE MCBRIDE AND SANFORD GORDON
      REFS: NASA RP-1311, PART I, 1994 AND NASA RP-1311, PART II, 1996

 *******************************************************************************



  
 ### CEA analysis performed on Mon 11-Jul-2022 13:29:06
  
 # Problem Type: "Combustion at Assigned Volume"
  
 prob case=test___________5469 uv
  
 # Density (1 value):
 rho,kg/m**3= 1.1224
  
 # Equivalence based on Fuel/Oxid. wt ratio (Eq 9.19*) (1 value):
 phi= 1.1
  
 # You selected the following fuels and oxidizers:
 reac
 fuel CH4              mole=100.0000  t,k= 300.000
 oxid Air              mole=100.0000  t,k= 300.000
  
 # You selected these options for output:
 # short version of output
 output short
 # Proportions of any products will be expressed as Mole Fractions.
 # Heat will be expressed as siunits
 output siunits
 # Trace variable:
 output trace=1e-16
  
 # Input prepared by this script:/var/www/sites/cearun.grc.nasa.gov/cgi-bin/CEARU
 N/prepareInputFile.cgi
  
 ### IMPORTANT:  The following line is the end of your CEA input file!
 end




         THERMODYNAMIC EQUILIBRIUM COMBUSTION PROPERTIES AT ASSIGNED

                                     VOLUME

 CASE = test___________

             REACTANT                       MOLES         ENERGY      TEMP
                                                         KJ/KG-MOL      K
 FUEL        CH4                        100.0000000    -77028.260    300.000
 OXIDANT     Air                        100.0000000     -2566.042    300.000

 O/F=   15.67138  %FUEL=  5.998302  R,EQ.RATIO= 1.099848  PHI,EQ.RATIO= 1.100000

 THERMODYNAMIC PROPERTIES

 P, BAR            9.0129
 T, K             2601.22
 RHO, KG/CU M    1.1224 0
 H, KJ/KG          431.72
 U, KJ/KG         -371.29
 G, KJ/KG        -24510.6
 S, KJ/(KG)(K)     9.5887

 M, (1/n)          26.934
 (dLV/dLP)t      -1.00368
 (dLV/dLT)p        1.0954
 Cp, KJ/(KG)(K)    2.3294
 GAMMAs            1.1839
 SON VEL,M/SEC      975.0

 MOLE FRACTIONS

 *Ar             8.1859-3
 *C              2.777-14
 *CH             9.192-15
 CH2             3.458-14
 CH3             1.603-13
 CH2OH           6.594-14
 CH3O            1.167-14
 CH4             8.319-14
 CH3OH           6.462-15
 *CN             2.710-11
 *CO             3.1980-2
 *CO2            6.9004-2
 COOH            1.2534-7
 CH2CO,ketene    2.011-15
 HO(CO)2OH       1.522-16
 OCCN            1.526-15
 C2O             7.129-15
 *H              1.4809-3
 HCN             3.7162-9
 HCO             5.2195-8
 HCCO            5.419-16
 HNC             4.437-10
 HNCO            1.4737-8
 HNO             3.5059-7
 HNO2            6.7433-8
 HNO3            2.853-12
 HO2             1.3394-6
 *H2             1.3239-2
 HCHO,formaldehy 1.5545-9
 HCOOH           1.9835-8
 H2O             1.8480-1
 H2O2            2.1501-7
 *N              1.9769-7
 NCO             1.1111-9
 *NH             7.1455-8
 NH2             4.9745-8
 NH3             1.0738-7
 NH2OH           2.396-11
 *NO             2.4489-3
 NO2             5.7516-7
 NO3             4.554-13
 *N2             6.8130-1
 N2O             3.9367-7
 NCN             1.332-15
 N2H2            4.931-12
 N2O3            1.792-14
 N3              1.564-12
 N3H             6.448-13
 *O              3.4475-4
 *OH             5.2536-3
 *O2             1.9573-3
 O3              1.277-10

  * THERMODYNAMIC PROPERTIES FITTED TO 20000.K

