 *******************************************************************************

         NASA-GLENN CHEMICAL EQUILIBRIUM PROGRAM CEA2, FEBRUARY 5, 2004
                   BY  BONNIE MCBRIDE AND SANFORD GORDON
      REFS: NASA RP-1311, PART I, 1994 AND NASA RP-1311, PART II, 1996

 *******************************************************************************



  
 ### CEA analysis performed on Mon 11-Jul-2022 13:42:55
  
 # Problem Type: "Combustion at Assigned Volume"
  
 prob case=test___________6313 uv
  
 # Density (1 value):
 rho,kg/m**3= 1.0448
  
 # Equivalence based on Fuel/Oxid. wt ratio (Eq 9.19*) (1 value):
 phi= 3.2
  
 # You selected the following fuels and oxidizers:
 reac
 fuel CH4              mole=100.0000  t,k= 300.000
 oxid Air              mole=100.0000  t,k= 300.000
  
 # You selected these options for output:
 # short version of output
 output short
 # Proportions of any products will be expressed as Mole Fractions.
 # Heat will be expressed as siunits
 output siunits
 # Trace variable:
 output trace=1e-16
  
 # Input prepared by this script:/var/www/sites/cearun.grc.nasa.gov/cgi-bin/CEARU
 N/prepareInputFile.cgi
  
 ### IMPORTANT:  The following line is the end of your CEA input file!
 end




         THERMODYNAMIC EQUILIBRIUM COMBUSTION PROPERTIES AT ASSIGNED

                                     VOLUME

 CASE = test___________

             REACTANT                       MOLES         ENERGY      TEMP
                                                         KJ/KG-MOL      K
 FUEL        CH4                        100.0000000    -77028.260    300.000
 OXIDANT     Air                        100.0000000     -2566.042    300.000

 O/F=    5.38704  %FUEL= 15.656709  R,EQ.RATIO= 3.196655  PHI,EQ.RATIO= 3.200000

 THERMODYNAMIC PROPERTIES

 P, BAR            5.2932
 T, K             1173.17
 RHO, KG/CU M    1.0448 0
 H, KJ/KG         -319.86
 U, KJ/KG         -826.48
 G, KJ/KG        -13183.4
 S, KJ/(KG)(K)    10.9648

 M, (1/n)          19.253
 (dLV/dLP)t      -1.01178
 (dLV/dLT)p        1.1413
 Cp, KJ/(KG)(K)    2.5241
 GAMMAs            1.2675
 SON VEL,M/SEC      801.4

 MOLE FRACTIONS

 *Ar             5.2504-3
 CH2             2.948-16
 CH3             5.8127-9
 CH2OH           1.504-13
 CH3O            3.001-15
 CH4             3.3796-3
 CH3OH           2.3748-9
 *CN             5.134-16
 *CO             1.7022-1
 *CO2            1.4478-2
 COOH            4.512-12
 C2H2,acetylene  1.7831-9
 CH2CO,ketene    4.3825-9
 O(CH)2O         3.176-15
 C2H3,vinyl      1.205-14
 CH3CN           1.2810-8
 CH3CO,acetyl    2.157-13
 C2H4            5.9268-8
 C2H4O,ethylen-o 1.275-16
 CH3CHO,ethanal  2.166-10
 CH3COOH         5.871-12
 C2H5            6.605-13
 C2H6            2.2297-8
 C2H5OH          2.189-13
 CH3OCH3         2.108-16
 C2N2            1.220-13
 C3H3,2-propynl  1.563-15
 C3H4,allene     1.702-13
 C3H4,propyne    5.618-13
 C3H5,allyl      6.436-15
 C3H6,propylene  8.560-12
 C3H6,cyclo-     7.021-15
 C3H6O,acetone   2.756-14
 C3H6O,propanal  3.778-15
 C3H8            5.065-13
 C3O2            4.877-14
 C4H6,butadiene  1.158-15
 C4H8,1-butene   1.826-16
 C4H8,cis2-buten 1.149-16
 C4H8,tr2-butene 1.305-16
 C4H8,isobutene  1.800-16
 *H              2.9680-8
 HCN             7.5459-6
 HCO             2.192-10
 HCCO            7.452-16
 HNC             2.6847-8
 HNCO            2.5688-7
 *H2             3.3276-1
 HCHO,formaldehy 1.5096-7
 HCOOH           2.5052-8
 H2O             3.6064-2
 NCO             2.962-15
 *NH             5.385-16
 NH2             2.434-11
 NH3             1.4664-4
 NH2OH           1.560-16
 *NO             8.710-14
 *N2             4.3769-1
 N2H2            3.433-16
 *OH             2.740-11

  * THERMODYNAMIC PROPERTIES FITTED TO 20000.K



