*******************************************************************************

         NASA-GLENN CHEMICAL EQUILIBRIUM PROGRAM CEA2, FEBRUARY 5, 2004
                   BY  BONNIE MCBRIDE AND SANFORD GORDON
      REFS: NASA RP-1311, PART I, 1994 AND NASA RP-1311, PART II, 1996

 *******************************************************************************



  
 ### CEA analysis performed on Mon 11-Jul-2022 13:40:29
  
 # Problem Type: "Combustion at Assigned Volume"
  
 prob case=test___________6313 uv
  
 # Density (1 value):
 rho,kg/m**3= 1.0609
  
 # Equivalence based on Fuel/Oxid. wt ratio (Eq 9.19*) (1 value):
 phi= 2.7
  
 # You selected the following fuels and oxidizers:
 reac
 fuel CH4              mole=100.0000  t,k= 300.000
 oxid Air              mole=100.0000  t,k= 300.000
  
 # You selected these options for output:
 # short version of output
 output short
 # Proportions of any products will be expressed as Mole Fractions.
 # Heat will be expressed as siunits
 output siunits
 # Trace variable:
 output trace=1e-16
  
 # Input prepared by this script:/var/www/sites/cearun.grc.nasa.gov/cgi-bin/CEARU
 N/prepareInputFile.cgi
  
 ### IMPORTANT:  The following line is the end of your CEA input file!
 end




         THERMODYNAMIC EQUILIBRIUM COMBUSTION PROPERTIES AT ASSIGNED

                                     VOLUME

 CASE = test___________

             REACTANT                       MOLES         ENERGY      TEMP
                                                         KJ/KG-MOL      K
 FUEL        CH4                        100.0000000    -77028.260    300.000
 OXIDANT     Air                        100.0000000     -2566.042    300.000

 O/F=    6.38464  %FUEL= 13.541626  R,EQ.RATIO= 2.697415  PHI,EQ.RATIO= 2.700000

 THERMODYNAMIC PROPERTIES

 P, BAR            6.2587
 T, K             1450.52
 RHO, KG/CU M    1.0609 0
 H, KJ/KG         -136.86
 U, KJ/KG         -726.80
 G, KJ/KG        -15795.2
 S, KJ/(KG)(K)    10.7950

 M, (1/n)          20.443
 (dLV/dLP)t      -1.00011
 (dLV/dLT)p        1.0009
 Cp, KJ/(KG)(K)    1.7519
 GAMMAs            1.3028
 SON VEL,M/SEC      876.7

 MOLE FRACTIONS

 *Ar             5.7147-3
 CH2             1.569-14
 CH3             2.3883-9
 CH2OH           7.269-13
 CH3O            2.923-14
 CH4             1.6175-5
 CH3OH           2.720-10
 *CN             8.745-14
 *CO             1.5678-1
 *CO2            1.5963-2
 COOH            1.615-10
 C2H2,acetylene  1.386-10
 C2H2,vinylidene 2.095-16
 CH2CO,ketene    4.176-10
 O(CH)2O         4.001-15
 C2H3,vinyl      3.226-15
 CH3CN           4.128-11
 CH3CO,acetyl    4.211-14
 C2H4            1.158-10
 CH3CHO,ethanal  1.732-12
 CH3COOH         8.495-14
 C2H5            4.416-15
 C2H6            2.600-12
 C2H5OH          4.111-16
 OCCN            8.947-16
 C2N2            7.105-14
 C2O             3.090-16
 C3H4,allene     1.825-16
 C3H4,propyne    5.282-16
 C3H6,propylene  2.678-16
 C3O2            2.391-14
 *H              2.0076-6
 HCN             3.1707-6
 HCO             3.8188-9
 HCCO            6.553-15
 HNC             3.8535-8
 HNCO            2.2837-7
 HNO             5.677-14
 *H2             2.7769-1
 HCHO,formaldehy 1.2341-7
 HCOOH           3.5043-8
 H2O             6.7337-2
 H2O2            2.425-15
 *N              4.529-15
 NCO             3.892-13
 *NH             5.607-13
 NH2             8.480-10
 NH3             4.5913-5
 NH2OH           1.461-14
 *NO             1.493-10
 *N2             4.7645-1
 N2O             1.871-14
 N2H2            2.076-14
 N2H4            5.104-16
 *O              7.473-14
 *OH             1.3860-8
 *O2             8.535-15

  * THERMODYNAMIC PROPERTIES FITTED TO 20000.K

