*******************************************************************************

         NASA-GLENN CHEMICAL EQUILIBRIUM PROGRAM CEA2, FEBRUARY 5, 2004
                   BY  BONNIE MCBRIDE AND SANFORD GORDON
      REFS: NASA RP-1311, PART I, 1994 AND NASA RP-1311, PART II, 1996

 *******************************************************************************



  
 ### CEA analysis performed on Mon 11-Jul-2022 13:43:39
  
 # Problem Type: "Combustion at Assigned Volume"
  
 prob case=test___________6313 uv
  
 # Density (1 value):
 rho,kg/m**3= 1.0388
  
 # Equivalence based on Fuel/Oxid. wt ratio (Eq 9.19*) (1 value):
 phi= 3.4
  
 # You selected the following fuels and oxidizers:
 reac
 fuel CH4              mole=100.0000  t,k= 300.000
 oxid Air              mole=100.0000  t,k= 300.000
  
 # You selected these options for output:
 # short version of output
 output short
 # Proportions of any products will be expressed as Mole Fractions.
 # Heat will be expressed as siunits
 output siunits
 # Trace variable:
 output trace=1e-16
  
 # Input prepared by this script:/var/www/sites/cearun.grc.nasa.gov/cgi-bin/CEARU
 N/prepareInputFile.cgi
  
 ### IMPORTANT:  The following line is the end of your CEA input file!
 end




         THERMODYNAMIC EQUILIBRIUM COMBUSTION PROPERTIES AT ASSIGNED

                                     VOLUME

 CASE = test___________

             REACTANT                       MOLES         ENERGY      TEMP
                                                         KJ/KG-MOL      K
 FUEL        CH4                        100.0000000    -77028.260    300.000
 OXIDANT     Air                        100.0000000     -2566.042    300.000

 O/F=    5.07015  %FUEL= 16.474048  R,EQ.RATIO= 3.396351  PHI,EQ.RATIO= 3.400000

 THERMODYNAMIC PROPERTIES

 P, BAR            5.0810
 T, K             1121.70
 RHO, KG/CU M    1.0388 0
 H, KJ/KG         -375.88
 U, KJ/KG         -865.00
 G, KJ/KG        -12726.9
 S, KJ/(KG)(K)    11.0110

 M, (1/n)          19.068
 (dLV/dLP)t      -1.02857
 (dLV/dLT)p        1.3610
 Cp, KJ/(KG)(K)    3.8050
 GAMMAs            1.2250
 SON VEL,M/SEC      774.1

 MOLE FRACTIONS

 *Ar             5.1493-3
 CH2             1.047-16
 CH3             6.5412-9
 CH2OH           9.718-14
 CH3O            1.647-15
 CH4             1.0945-2
 CH3OH           3.7163-9
 *CN             1.419-16
 *CO             1.7057-1
 *CO2            1.4457-2
 COOH            1.927-12
 C2H2,acetylene  2.8878-9
 CH2CO,ketene    7.0102-9
 O(CH)2O         2.847-15
 C2H3,vinyl      1.428-14
 CH3CN           4.3983-8
 CH3CO,acetyl    2.870-13
 C2H4            2.2588-7
 C2H4O,ethylen-o 2.107-16
 CH3CHO,ethanal  6.110-10
 CH3COOH         1.501-11
 C2H5            1.848-12
 C2H6            1.6271-7
 C2H5OH          8.518-13
 CH3OCH3         6.509-16
 C2N2            1.258-13
 C3H3,2-propynl  3.327-15
 C3H4,allene     7.128-13
 C3H4,propyne    2.427-12
 C3H5,allyl      3.044-14
 C3H6,propylene  8.146-11
 C3H6,cyclo-     5.706-14
 C3H6O,acetone   2.130-13
 C3H6O,propanal  2.462-14
 C3H7,i-propyl   1.241-16
 C3H8            8.681-12
 C3O2            5.348-14
 C4H6,butadiene  1.487-14
 C4H6,1butyne    1.366-16
 C4H6,2butyne    3.262-16
 C4H8,1-butene   4.085-15
 C4H8,cis2-buten 2.699-15
 C4H8,tr2-butene 3.076-15
 C4H8,isobutene  4.355-15
 C4H10,n-butane  4.575-16
 C4H10,isobutane 2.172-16
 C6H6            3.584-15
 *H              1.0695-8
 HCN             8.7063-6
 HCO             1.070-10
 HCCO            4.080-16
 HNC             2.3066-8
 HNCO            2.5681-7
 *H2             3.3821-1
 HCHO,formaldehy 1.5157-7
 HCOOH           2.3104-8
 H2O             3.1227-2
 NCO             9.070-16
 *NH             1.003-16
 NH2             1.009-11
 NH3             1.8566-4
 *NO             1.514-14
 *N2             4.2925-1
 N2H2            1.254-16
 *OH             6.288-12

  * THERMODYNAMIC PROPERTIES FITTED TO 20000.K



