*******************************************************************************

         NASA-GLENN CHEMICAL EQUILIBRIUM PROGRAM CEA2, FEBRUARY 5, 2004
                   BY  BONNIE MCBRIDE AND SANFORD GORDON
      REFS: NASA RP-1311, PART I, 1994 AND NASA RP-1311, PART II, 1996

 *******************************************************************************



  
 ### CEA analysis performed on Mon 11-Jul-2022 13:20:34
  
 # Problem Type: "Combustion at Assigned Volume"
  
 prob case=test___________5469 uv
  
 # Density (1 value):
 rho,kg/m**3= 1.0216
  
 # Equivalence based on Fuel/Oxid. wt ratio (Eq 9.19*) (1 value):
 phi= 4
  
 # You selected the following fuels and oxidizers:
 reac
 fuel CH4              mole=100.0000  t,k= 300.000
 oxid Air              mole=100.0000  t,k= 300.000
  
 # You selected these options for output:
 # short version of output
 output short
 # Proportions of any products will be expressed as Mole Fractions.
 # Heat will be expressed as siunits
 output siunits
 # Trace variable:
 output trace=1e-16
  
 # Input prepared by this script:/var/www/sites/cearun.grc.nasa.gov/cgi-bin/CEARU
 N/prepareInputFile.cgi
  
 ### IMPORTANT:  The following line is the end of your CEA input file!
 end




         THERMODYNAMIC EQUILIBRIUM COMBUSTION PROPERTIES AT ASSIGNED

                                     VOLUME

 CASE = test___________

             REACTANT                       MOLES         ENERGY      TEMP
                                                         KJ/KG-MOL      K
 FUEL        CH4                        100.0000000    -77028.260    300.000
 OXIDANT     Air                        100.0000000     -2566.042    300.000

 O/F=    4.30963  %FUEL= 18.833702  R,EQ.RATIO= 3.995438  PHI,EQ.RATIO= 4.000000

 THERMODYNAMIC PROPERTIES

 P, BAR            4.8182
 T, K             1068.68
 RHO, KG/CU M    1.0216 0
 H, KJ/KG         -504.58
 U, KJ/KG         -976.21
 G, KJ/KG        -12392.4
 S, KJ/(KG)(K)    11.1239

 M, (1/n)          18.840
 MW, MOL WT        18.400
 (dLV/dLP)t      -1.05073
 (dLV/dLT)p        1.7052
 Cp, KJ/(KG)(K)    6.4637
 GAMMAs            1.1734
 SON VEL,M/SEC      743.9

 MOLE FRACTIONS

 *Ar             4.8287-3
 CH3             4.9861-9
 CH2OH           5.219-14
 CH3O            7.372-16
 CH4             2.7703-2
 CH3OH           5.4481-9
 *CO             1.4856-1
 *CO2            1.6564-2
 COOH            8.486-13
 C2H2,acetylene  2.2211-9
 CH2CO,ketene    7.0131-9
 O(CH)2O         1.956-15
 C2H3,vinyl      7.734-15
 CH3CN           7.8467-8
 CH3CO,acetyl    2.344-13
 C2H4            4.6089-7
 C2H4O,ethylen-o 2.207-16
 CH3CHO,ethanal  1.1710-9
 CH3COOH         3.403-11
 C2H5            2.668-12
 C2H6            6.9796-7
 C2H5OH          2.369-12
 CH3OCH3         1.393-15
 C2N2            5.623-14
 C3H3,2-propynl  2.347-15
 C3H4,allene     1.086-12
 C3H4,propyne    3.828-12
 C3H5,allyl      5.349-14
 C3H6,propylene  3.166-10
 C3H6,cyclo-     1.857-13
 C3H6O,acetone   8.630-13
 C3H6O,propanal  8.238-14
 C3H7,n-propyl   2.206-16
 C3H7,i-propyl   3.334-16
 C3H8            6.620-11
 C3H8O,1propanol 2.179-16
 C3H8O,2propanol 4.029-16
 C3O2            3.067-14
 C4H6,butadiene  5.448-14
 C4H6,1butyne    3.816-16
 C4H6,2butyne    1.031-15
 C4H8,1-butene   2.826-14
 C4H8,cis2-buten 1.971-14
 C4H8,tr2-butene 2.257-14
 C4H8,isobutene  3.290-14
 C4H10,n-butane  6.176-15
 C4H10,isobutane 3.071-15
 C5H6,1,3cyclo-  5.172-16
 C6H6            3.971-14
 *H              3.3348-9
 HCN             6.6910-6
 HCO             4.153-11
 HCCO            1.209-16
 HNC             1.2700-8
 HNCO            2.2140-7
 *H2             3.4161-1
 HCHO,formaldehy 1.3343-7
 HCOOH           2.4445-8
 H2O             3.4658-2
 NCO             2.044-16
 NH2             3.649-12
 NH3             2.3814-4
 *NO             2.681-15
 *N2             4.0249-1
 *OH             1.549-12
 C(gr)           2.3345-2

  * THERMODYNAMIC PROPERTIES FITTED TO 20000.K

