*******************************************************************************

         NASA-GLENN CHEMICAL EQUILIBRIUM PROGRAM CEA2, FEBRUARY 5, 2004
                   BY  BONNIE MCBRIDE AND SANFORD GORDON
      REFS: NASA RP-1311, PART I, 1994 AND NASA RP-1311, PART II, 1996

 *******************************************************************************



  
 ### CEA analysis performed on Mon 11-Jul-2022 13:40:57
  
 # Problem Type: "Combustion at Assigned Volume"
  
 prob case=test___________6313 uv
  
 # Density (1 value):
 rho,kg/m**3= 1.0576
  
 # Equivalence based on Fuel/Oxid. wt ratio (Eq 9.19*) (1 value):
 phi= 2.8
  
 # You selected the following fuels and oxidizers:
 reac
 fuel CH4              mole=100.0000  t,k= 300.000
 oxid Air              mole=100.0000  t,k= 300.000
  
 # You selected these options for output:
 # short version of output
 output short
 # Proportions of any products will be expressed as Mole Fractions.
 # Heat will be expressed as siunits
 output siunits
 # Trace variable:
 output trace=1e-16
  
 # Input prepared by this script:/var/www/sites/cearun.grc.nasa.gov/cgi-bin/CEARU
 N/prepareInputFile.cgi
  
 ### IMPORTANT:  The following line is the end of your CEA input file!
 end




         THERMODYNAMIC EQUILIBRIUM COMBUSTION PROPERTIES AT ASSIGNED

                                     VOLUME

 CASE = test___________

             REACTANT                       MOLES         ENERGY      TEMP
                                                         KJ/KG-MOL      K
 FUEL        CH4                        100.0000000    -77028.260    300.000
 OXIDANT     Air                        100.0000000     -2566.042    300.000

 O/F=    6.15662  %FUEL= 13.973086  R,EQ.RATIO= 2.797263  PHI,EQ.RATIO= 2.800000

 THERMODYNAMIC PROPERTIES

 P, BAR            6.0519
 T, K             1387.52
 RHO, KG/CU M    1.0576 0
 H, KJ/KG         -174.91
 U, KJ/KG         -747.13
 G, KJ/KG        -15210.7
 S, KJ/(KG)(K)    10.8365

 M, (1/n)          20.161
 (dLV/dLP)t      -1.00025
 (dLV/dLT)p        1.0022
 Cp, KJ/(KG)(K)    1.7653
 GAMMAs            1.3062
 SON VEL,M/SEC      864.5

 MOLE FRACTIONS

 *Ar             5.6076-3
 CH2             7.513-15
 CH3             2.9253-9
 CH2OH           5.487-13
 CH3O            1.922-14
 CH4             4.6751-5
 CH3OH           4.233-10
 *CN             3.305-14
 *CO             1.6018-1
 *CO2            1.5559-2
 COOH            8.114-11
 C2H2,acetylene  2.352-10
 C2H2,vinylidene 1.793-16
 CH2CO,ketene    6.742-10
 O(CH)2O         3.883-15
 C2H3,vinyl      4.345-15
 CH3CN           1.294-10
 CH3CO,acetyl    5.947-14
 C2H4            4.028-10
 CH3CHO,ethanal  4.547-12
 CH3COOH         1.960-13
 C2H5            1.220-14
 C2H6            1.570-11
 C2H5OH          1.439-15
 OCCN            5.089-16
 C2N2            8.052-14
 C2O             1.331-16
 C3H4,allene     7.210-16
 C3H4,propyne    2.141-15
 C3H6,propylene  2.107-15
 C3O2            2.790-14
 *H              8.9790-7
 HCN             3.8126-6
 HCO             2.2296-9
 HCCO            4.415-15
 HNC             3.6602-8
 HNCO            2.3527-7
 HNO             1.317-14
 *H2             2.9108-1
 HCHO,formaldehy 1.3029-7
 HCOOH           3.2872-8
 H2O             5.9941-2
 H2O2            4.763-16
 *N              7.540-16
 NCO             1.527-13
 *NH             1.484-13
 NH2             4.334-10
 NH3             5.8330-5
 NH2OH           6.124-15
 *NO             3.533-11
 *N2             4.6752-1
 N2O             4.406-15
 N2H2            9.493-15
 N2H4            3.725-16
 *O              9.846-15
 *OH             4.1799-9
 *O2             9.695-16

  * THERMODYNAMIC PROPERTIES FITTED TO 20000.K


