*******************************************************************************

         NASA-GLENN CHEMICAL EQUILIBRIUM PROGRAM CEA2, FEBRUARY 5, 2004
                   BY  BONNIE MCBRIDE AND SANFORD GORDON
      REFS: NASA RP-1311, PART I, 1994 AND NASA RP-1311, PART II, 1996

 *******************************************************************************



  
 ### CEA analysis performed on Mon 11-Jul-2022 13:37:45
  
 # Problem Type: "Combustion at Assigned Volume"
  
 prob case=test___________5469 uv
  
 # Density (1 value):
 rho,kg/m**3= 1.0820
  
 # Equivalence based on Fuel/Oxid. wt ratio (Eq 9.19*) (1 value):
 phi= 2.1
  
 # You selected the following fuels and oxidizers:
 reac
 fuel CH4              mole=100.0000  t,k= 300.000
 oxid Air              mole=100.0000  t,k= 300.000
  
 # You selected these options for output:
 # short version of output
 output short
 # Proportions of any products will be expressed as Mole Fractions.
 # Heat will be expressed as siunits
 output siunits
 # Trace variable:
 output trace=1e-16
  
 # Input prepared by this script:/var/www/sites/cearun.grc.nasa.gov/cgi-bin/CEARU
 N/prepareInputFile.cgi
  
 ### IMPORTANT:  The following line is the end of your CEA input file!
 end




         THERMODYNAMIC EQUILIBRIUM COMBUSTION PROPERTIES AT ASSIGNED

                                     VOLUME

 CASE = test___________

             REACTANT                       MOLES         ENERGY      TEMP
                                                         KJ/KG-MOL      K
 FUEL        CH4                        100.0000000    -77028.260    300.000
 OXIDANT     Air                        100.0000000     -2566.042    300.000

 O/F=    8.20882  %FUEL= 10.859155  R,EQ.RATIO= 2.098327  PHI,EQ.RATIO= 2.100000

 THERMODYNAMIC PROPERTIES

 P, BAR            7.4625
 T, K             1858.34
 RHO, KG/CU M    1.0820 0
 H, KJ/KG          89.323
 U, KJ/KG         -600.38
 G, KJ/KG        -19364.3
 S, KJ/(KG)(K)    10.4683

 M, (1/n)          22.403
 (dLV/dLP)t      -1.00004
 (dLV/dLT)p        1.0008
 Cp, KJ/(KG)(K)    1.7001
 GAMMAs            1.2797
 SON VEL,M/SEC      939.5

 MOLE FRACTIONS

 *Ar             6.4567-3
 *CH             5.757-16
 CH2             3.712-13
 CH3             5.591-10
 CH2OH           2.101-12
 CH3O            1.695-13
 CH4             5.6743-8
 CH3OH           2.227-11
 *CN             7.746-12
 *CO             1.3145-1
 *CO2            2.0410-2
 COOH            4.7045-9
 C2H2,acetylene  5.924-12
 C2H2,vinylidene 2.403-16
 CH2CO,ketene    2.700-11
 O(CH)2O         3.675-15
 C2H3,vinyl      3.859-16
 CH3CN           8.699-14
 CH3CO,acetyl    4.891-15
 C2H4            1.321-13
 CH3CHO,ethanal  9.269-15
 CH3COOH         1.044-15
 C2H6            1.792-16
 OCCN            1.066-14
 C2N2            2.655-14
 C2O             1.379-14
 C3O2            8.440-15
 *H              9.1049-5
 HCN             9.7939-7
 HCO             4.4467-8
 HCCO            3.113-14
 HNC             3.7131-8
 HNCO            1.7732-7
 HNO             7.469-11
 HNO2            1.649-13
 HO2             8.817-13
 *H2             1.8622-1
 HCHO,formaldehy 7.6570-8
 HCOOH           4.7549-8
 H2O             1.1701-1
 H2O2            7.575-12
 *N              2.685-11
 NCO             3.499-11
 *NH             3.232-10
 NH2             1.8719-8
 NH3             1.1500-5
 NH2OH           9.579-13
 *NO             1.9030-7
 NO2             5.342-14
 *N2             5.3835-1
 N2O             2.548-11
 N2H2            8.362-13
 N2H4            1.810-15
 N3              2.739-16
 N3H             5.553-15
 *O              1.5925-9
 *OH             4.9083-6
 *O2             4.390-10

  * THERMODYNAMIC PROPERTIES FITTED TO 20000.K



