*******************************************************************************

         NASA-GLENN CHEMICAL EQUILIBRIUM PROGRAM CEA2, FEBRUARY 5, 2004
                   BY  BONNIE MCBRIDE AND SANFORD GORDON
      REFS: NASA RP-1311, PART I, 1994 AND NASA RP-1311, PART II, 1996

 *******************************************************************************



  
 ### CEA analysis performed on Mon 11-Jul-2022 13:29:27
  
 # Problem Type: "Combustion at Assigned Volume"
  
 prob case=test___________5469 uv
  
 # Density (1 value):
 rho,kg/m**3= 1.1180
  
 # Equivalence based on Fuel/Oxid. wt ratio (Eq 9.19*) (1 value):
 phi= 1.2
  
 # You selected the following fuels and oxidizers:
 reac
 fuel CH4              mole=100.0000  t,k= 300.000
 oxid Air              mole=100.0000  t,k= 300.000
  
 # You selected these options for output:
 # short version of output
 output short
 # Proportions of any products will be expressed as Mole Fractions.
 # Heat will be expressed as siunits
 output siunits
 # Trace variable:
 output trace=1e-16
  
 # Input prepared by this script:/var/www/sites/cearun.grc.nasa.gov/cgi-bin/CEARU
 N/prepareInputFile.cgi
  
 ### IMPORTANT:  The following line is the end of your CEA input file!
 end




         THERMODYNAMIC EQUILIBRIUM COMBUSTION PROPERTIES AT ASSIGNED

                                     VOLUME

 CASE = test___________

             REACTANT                       MOLES         ENERGY      TEMP
                                                         KJ/KG-MOL      K
 FUEL        CH4                        100.0000000    -77028.260    300.000
 OXIDANT     Air                        100.0000000     -2566.042    300.000

 O/F=   14.36544  %FUEL=  6.508114  R,EQ.RATIO= 1.199696  PHI,EQ.RATIO= 1.200000

 THERMODYNAMIC PROPERTIES

 P, BAR            8.9913
 T, K             2557.85
 RHO, KG/CU M    1.1180 0
 H, KJ/KG          408.92
 U, KJ/KG         -395.31
 G, KJ/KG        -24410.0
 S, KJ/(KG)(K)     9.7030

 M, (1/n)          26.444
 (dLV/dLP)t      -1.00189
 (dLV/dLT)p        1.0493
 Cp, KJ/(KG)(K)    1.9823
 GAMMAs            1.2088
 SON VEL,M/SEC      986.0

 MOLE FRACTIONS

 *Ar             7.9935-3
 *C              5.010-14
 *CH             2.502-14
 CH2             1.523-13
 CH3             1.171-12
 CH2OH           2.429-13
 CH3O            4.147-14
 CH4             9.847-13
 CH3OH           3.767-14
 *CN             6.033-11
 *CO             4.9233-2
 *CO2            5.8318-2
 COOH            1.2614-7
 C2H2,acetylene  5.321-16
 CH2CO,ketene    1.742-14
 O(CH)2O         1.567-16
 HO(CO)2OH       1.922-16
 OCCN            5.664-15
 C2N2            1.125-16
 C2O             2.513-14
 *H              1.6990-3
 HCN             1.4352-8
 HCO             9.7659-8
 HCCO            2.868-15
 HNC             1.6328-9
 HNCO            3.0700-8
 HNO             1.9339-7
 HNO2            1.8949-8
 HNO3            3.684-13
 HO2             3.5763-7
 *H2             2.4883-2
 HCHO,formaldehy 4.4853-9
 HCOOH           3.0894-8
 H2O             1.8727-1
 H2O2            8.8331-8
 *N              1.3416-7
 NCO             1.3837-9
 *NH             7.3181-8
 NH2             7.9853-8
 NH3             2.8460-7
 NH2OH           2.786-11
 *NO             9.9874-4
 NO2             1.0831-7
 NO3             3.657-14
 *N2             6.6599-1
 N2O             1.5849-7
 NCN             2.760-15
 N2H2            7.594-12
 N2H4            2.979-16
 N2O3            1.398-15
 N3              1.064-12
 N3H             6.725-13
 *O              1.2510-4
 *OH             3.1067-3
 *O2             3.8426-4
 O3              9.800-12

  * THERMODYNAMIC PROPERTIES FITTED TO 20000.K
