*******************************************************************************

         NASA-GLENN CHEMICAL EQUILIBRIUM PROGRAM CEA2, FEBRUARY 5, 2004
                   BY  BONNIE MCBRIDE AND SANFORD GORDON
      REFS: NASA RP-1311, PART I, 1994 AND NASA RP-1311, PART II, 1996

 *******************************************************************************



  
 ### CEA analysis performed on Mon 11-Jul-2022 13:27:56
  
 # Problem Type: "Combustion at Assigned Volume"
  
 prob case=test___________5469 uv
  
 # Density (1 value):
 rho,kg/m**3= 1.1360
  
 # Equivalence based on Fuel/Oxid. wt ratio (Eq 9.19*) (1 value):
 phi= 0.8
  
 # You selected the following fuels and oxidizers:
 reac
 fuel CH4              mole=100.0000  t,k= 300.000
 oxid Air              mole=100.0000  t,k= 300.000
  
 # You selected these options for output:
 # short version of output
 output short
 # Proportions of any products will be expressed as Mole Fractions.
 # Heat will be expressed as siunits
 output siunits
 # Trace variable:
 output trace=1e-16
  
 # Input prepared by this script:/var/www/sites/cearun.grc.nasa.gov/cgi-bin/CEARU
 N/prepareInputFile.cgi
  
 ### IMPORTANT:  The following line is the end of your CEA input file!
 end




         THERMODYNAMIC EQUILIBRIUM COMBUSTION PROPERTIES AT ASSIGNED

                                     VOLUME

 CASE = test___________

             REACTANT                       MOLES         ENERGY      TEMP
                                                         KJ/KG-MOL      K
 FUEL        CH4                        100.0000000    -77028.260    300.000
 OXIDANT     Air                        100.0000000     -2566.042    300.000

 O/F=   21.54815  %FUEL=  4.434953  R,EQ.RATIO= 0.800304  PHI,EQ.RATIO= 0.800000

 THERMODYNAMIC PROPERTIES

 P, BAR            8.0619
 T, K             2378.92
 RHO, KG/CU M    1.1360 0
 H, KJ/KG          412.07
 U, KJ/KG         -297.61
 G, KJ/KG        -21448.5
 S, KJ/(KG)(K)     9.1893

 M, (1/n)          27.871
 (dLV/dLP)t      -1.00138
 (dLV/dLT)p        1.0389
 Cp, KJ/(KG)(K)    1.8418
 GAMMAs            1.2098
 SON VEL,M/SEC      926.6

 MOLE FRACTIONS

 *Ar             8.6117-3
 *CN             4.927-14
 *CO             2.6268-3
 *CO2            7.4717-2
 COOH            1.5551-8
 *H              1.5265-4
 HCN             6.166-12
 HCO             5.500-10
 HNC             5.638-13
 HNCO            2.919-10
 HNO             2.3835-7
 HNO2            3.9846-7
 HNO3            8.333-11
 HO2             5.7476-6
 *H2             9.0613-4
 HCHO,formaldehy 7.815-12
 HCOOH           1.1982-9
 H2O             1.5060-1
 H2O2            4.3406-7
 *N              2.6758-8
 NCO             2.951-11
 *NH             4.0864-9
 NH2             1.4827-9
 NH3             2.2228-9
 NH2OH           1.904-12
 *NO             7.1704-3
 NO2             8.5459-6
 NO3             2.218-11
 *N2             7.1444-1
 N2O             1.1163-6
 N2H2            1.221-13
 N2O3            7.726-13
 N3              2.317-13
 N3H             4.404-14
 *O              5.1137-4
 *OH             5.0256-3
 *O2             3.5219-2
 O3              4.6951-9

  * THERMODYNAMIC PROPERTIES FITTED TO 20000.K

