*******************************************************************************

         NASA-GLENN CHEMICAL EQUILIBRIUM PROGRAM CEA2, FEBRUARY 5, 2004
                   BY  BONNIE MCBRIDE AND SANFORD GORDON
      REFS: NASA RP-1311, PART I, 1994 AND NASA RP-1311, PART II, 1996

 *******************************************************************************



  
 ### CEA analysis performed on Mon 11-Jul-2022 13:33:10
  
 # Problem Type: "Combustion at Assigned Volume"
  
 prob case=test___________5469 uv
  
 # Density (1 value):
 rho,kg/m**3= 1.0895
  
 # Equivalence based on Fuel/Oxid. wt ratio (Eq 9.19*) (1 value):
 phi= 1.9
  
 # You selected the following fuels and oxidizers:
 reac
 fuel CH4              mole=100.0000  t,k= 300.000
 oxid Air              mole=100.0000  t,k= 300.000
  
 # You selected these options for output:
 # short version of output
 output short
 # Proportions of any products will be expressed as Mole Fractions.
 # Heat will be expressed as siunits
 output siunits
 # Trace variable:
 output trace=1e-16
  
 # Input prepared by this script:/var/www/sites/cearun.grc.nasa.gov/cgi-bin/CEARU
 N/prepareInputFile.cgi
  
 ### IMPORTANT:  The following line is the end of your CEA input file!
 end




         THERMODYNAMIC EQUILIBRIUM COMBUSTION PROPERTIES AT ASSIGNED

                                     VOLUME

 CASE = test___________

             REACTANT                       MOLES         ENERGY      TEMP
                                                         KJ/KG-MOL      K
 FUEL        CH4                        100.0000000    -77028.260    300.000
 OXIDANT     Air                        100.0000000     -2566.042    300.000

 O/F=    9.07291  %FUEL=  9.927621  R,EQ.RATIO= 1.898632  PHI,EQ.RATIO= 1.900000

 THERMODYNAMIC PROPERTIES

 P, BAR            7.8447
 T, K             2006.77
 RHO, KG/CU M    1.0895 0
 H, KJ/KG          163.55
 U, KJ/KG         -556.47
 G, KJ/KG        -20565.6
 S, KJ/(KG)(K)    10.3296

 M, (1/n)          23.173
 (dLV/dLP)t      -1.00007
 (dLV/dLT)p        1.0019
 Cp, KJ/(KG)(K)    1.6879
 GAMMAs            1.2711
 SON VEL,M/SEC      956.7

 MOLE FRACTIONS

 *Ar             6.7486-3
 *C              5.407-16
 *CH             3.089-15
 CH2             6.688-13
 CH3             2.853-10
 CH2OH           2.307-12
 CH3O            2.259-13
 CH4             9.2435-9
 CH3OH           9.171-12
 *CN             2.195-11
 *CO             1.2027-1
 *CO2            2.3358-2
 COOH            1.1668-8
 C2H2,acetylene  1.775-12
 C2H2,vinylidene 1.697-16
 CH2CO,ketene    1.002-11
 O(CH)2O         3.066-15
 C2H3,vinyl      1.439-16
 CH3CN           1.139-14
 CH3CO,acetyl    2.030-15
 C2H4            1.388-14
 CH3CHO,ethanal  1.629-15
 CH3COOH         2.568-16
 OCCN            1.732-14
 C2N2            1.584-14
 C2O             3.145-14
 C3O2            5.247-15
 *H              2.3689-4
 HCN             5.9928-7
 HCO             7.7533-8
 HCCO            3.748-14
 HNC             3.0616-8
 HNCO            1.5370-7
 HNO             5.291-10
 HNO2            2.376-12
 HO2             1.807-11
 *H2             1.5132-1
 HCHO,formaldehy 5.9019-8
 HCOOH           5.0637-8
 H2O             1.3535-1
 H2O2            7.029-11
 *N              2.661-10
 NCO             1.113-10
 *NH             1.6456-9
 NH2             3.8475-8
 NH3             6.9350-6
 NH2OH           2.811-12
 *NO             1.3933-6
 NO2             1.418-12
 *N2             5.6268-1
 N2O             1.928-10
 NCN             3.331-16
 N2H2            2.063-12
 N2H4            2.124-15
 N3              2.493-15
 N3H             2.338-14
 *O              2.4348-8
 *OH             2.4188-5
 *O2             9.3754-9

  * THERMODYNAMIC PROPERTIES FITTED TO 20000.K
