*******************************************************************************

         NASA-GLENN CHEMICAL EQUILIBRIUM PROGRAM CEA2, FEBRUARY 5, 2004
                   BY  BONNIE MCBRIDE AND SANFORD GORDON
      REFS: NASA RP-1311, PART I, 1994 AND NASA RP-1311, PART II, 1996

 *******************************************************************************



  
 ### CEA analysis performed on Mon 11-Jul-2022 13:45:04
  
 # Problem Type: "Combustion at Assigned Volume"
  
 prob case=test___________6313 uv
  
 # Density (1 value):
 rho,kg/m**3= 1.0272
  
 # Equivalence based on Fuel/Oxid. wt ratio (Eq 9.19*) (1 value):
 phi= 3.8
  
 # You selected the following fuels and oxidizers:
 reac
 fuel CH4              mole=100.0000  t,k= 300.000
 oxid Air              mole=100.0000  t,k= 300.000
  
 # You selected these options for output:
 # short version of output
 output short
 # Proportions of any products will be expressed as Mole Fractions.
 # Heat will be expressed as siunits
 output siunits
 # Trace variable:
 output trace=1e-16
  
 # Input prepared by this script:/var/www/sites/cearun.grc.nasa.gov/cgi-bin/CEARU
 N/prepareInputFile.cgi
  
 ### IMPORTANT:  The following line is the end of your CEA input file!
 end




         THERMODYNAMIC EQUILIBRIUM COMBUSTION PROPERTIES AT ASSIGNED

                                     VOLUME

 CASE = test___________

             REACTANT                       MOLES         ENERGY      TEMP
                                                         KJ/KG-MOL      K
 FUEL        CH4                        100.0000000    -77028.260    300.000
 OXIDANT     Air                        100.0000000     -2566.042    300.000

 O/F=    4.53645  %FUEL= 18.062105  R,EQ.RATIO= 3.795743  PHI,EQ.RATIO= 3.800000

 THERMODYNAMIC PROPERTIES

 P, BAR            4.8766
 T, K             1079.70
 RHO, KG/CU M    1.0272 0
 H, KJ/KG         -465.10
 U, KJ/KG         -939.85
 G, KJ/KG        -12437.2
 S, KJ/(KG)(K)    11.0884

 M, (1/n)          18.910
 MW, MOL WT        18.697
 (dLV/dLP)t      -1.04765
 (dLV/dLT)p        1.6611
 Cp, KJ/(KG)(K)    6.1171
 GAMMAs            1.1774
 SON VEL,M/SEC      747.6

 MOLE FRACTIONS

 *Ar             4.9533-3
 CH3             5.7917-9
 CH2OH           6.111-14
 CH3O            8.977-16
 CH4             2.4707-2
 CH3OH           5.1102-9
 *CO             1.5911-1
 *CO2            1.5626-2
 COOH            9.792-13
 C2H2,acetylene  2.8587-9
 CH2CO,ketene    7.9711-9
 O(CH)2O         2.253-15
 C2H3,vinyl      1.068-14
 CH3CN           8.3996-8
 CH3CO,acetyl    2.769-13
 C2H4            4.7571-7
 C2H4O,ethylen-o 2.459-16
 CH3CHO,ethanal  1.1450-9
 CH3COOH         2.999-11
 C2H5            2.952-12
 C2H6            6.0744-7
 C2H5OH          2.116-12
 CH3OCH3         1.317-15
 C2N2            8.259-14
 C3H3,2-propynl  3.383-15
 C3H4,allene     1.319-12
 C3H4,propyne    4.614-12
 C3H5,allyl      6.266-14
 C3H6,propylene  3.109-10
 C3H6,cyclo-     1.895-13
 C3H6O,acetone   7.850-13
 C3H6O,propanal  7.809-14
 C3H7,n-propyl   2.364-16
 C3H7,i-propyl   3.529-16
 C3H8            5.564-11
 C3H8O,1propanol 1.877-16
 C3H8O,2propanol 3.415-16
 C3O2            4.100-14
 C4H6,butadiene  5.985-14
 C4H6,1butyne    4.445-16
 C4H6,2butyne    1.169-15
 C4H8,1-butene   2.679-14
 C4H8,cis2-buten 1.847-14
 C4H8,tr2-butene 2.113-14
 C4H8,isobutene  3.061-14
 C4H10,n-butane  5.017-15
 C4H10,isobutane 2.470-15
 C5H6,1,3cyclo-  5.804-16
 C6H6            4.192-14
 *H              4.2952-9
 HCN             7.8558-6
 HCO             5.269-11
 HCCO            1.796-16
 HNC             1.6024-8
 HNCO            2.3701-7
 *H2             3.3969-1
 HCHO,formaldehy 1.4114-7
 HCOOH           2.3222-8
 H2O             3.1568-2
 NCO             2.938-16
 NH2             4.541-12
 NH3             2.2434-4
 *NO             3.675-15
 *N2             4.1288-1
 *OH             1.963-12
 C(gr)           1.1229-2

  * THERMODYNAMIC PROPERTIES FITTED TO 20000.K


