*******************************************************************************

         NASA-GLENN CHEMICAL EQUILIBRIUM PROGRAM CEA2, FEBRUARY 5, 2004
                   BY  BONNIE MCBRIDE AND SANFORD GORDON
      REFS: NASA RP-1311, PART I, 1994 AND NASA RP-1311, PART II, 1996

 *******************************************************************************



  
 ### CEA analysis performed on Mon 11-Jul-2022 13:32:13
  
 # Problem Type: "Combustion at Assigned Volume"
  
 prob case=test___________5469 uv
  
 # Density (1 value):
 rho,kg/m**3= 1.1013
  
 # Equivalence based on Fuel/Oxid. wt ratio (Eq 9.19*) (1 value):
 phi= 1.6
  
 # You selected the following fuels and oxidizers:
 reac
 fuel CH4              mole=100.0000  t,k= 300.000
 oxid Air              mole=100.0000  t,k= 300.000
  
 # You selected these options for output:
 # short version of output
 output short
 # Proportions of any products will be expressed as Mole Fractions.
 # Heat will be expressed as siunits
 output siunits
 # Trace variable:
 output trace=1e-16
  
 # Input prepared by this script:/var/www/sites/cearun.grc.nasa.gov/cgi-bin/CEARU
 N/prepareInputFile.cgi
  
 ### IMPORTANT:  The following line is the end of your CEA input file!
 end




         THERMODYNAMIC EQUILIBRIUM COMBUSTION PROPERTIES AT ASSIGNED

                                     VOLUME

 CASE = test___________

             REACTANT                       MOLES         ENERGY      TEMP
                                                         KJ/KG-MOL      K
 FUEL        CH4                        100.0000000    -77028.260    300.000
 OXIDANT     Air                        100.0000000     -2566.042    300.000

 O/F=   10.77408  %FUEL=  8.493235  R,EQ.RATIO= 1.599088  PHI,EQ.RATIO= 1.600000

 THERMODYNAMIC PROPERTIES

 P, BAR            8.3924
 T, K             2242.14
 RHO, KG/CU M    1.1013 0
 H, KJ/KG          273.18
 U, KJ/KG         -488.87
 G, KJ/KG        -22352.6
 S, KJ/(KG)(K)    10.0912

 M, (1/n)          24.463
 (dLV/dLP)t      -1.00025
 (dLV/dLT)p        1.0065
 Cp, KJ/(KG)(K)    1.6900
 GAMMAs            1.2555
 SON VEL,M/SEC      978.1

 MOLE FRACTIONS

 *Ar             7.2378-3
 *C              9.168-15
 *CH             1.968-14
 CH2             9.237-13
 CH3             6.855-11
 CH2OH           1.825-12
 CH3O            2.326-13
 CH4             4.570-10
 CH3OH           1.832-12
 *CN             6.670-11
 *CO             9.8622-2
 *CO2            3.1139-2
 COOH            3.9167-8
 C2H2,acetylene  1.798-13
 CH2CO,ketene    1.620-12
 O(CH)2O         1.737-15
 HO(CO)2OH       1.150-16
 CH3CN           3.587-16
 CH3CO,acetyl    3.481-16
 C2H4            2.955-16
 OCCN            2.354-14
 C2N2            4.869-15
 C2O             6.640-14
 C3O2            1.873-15
 *H              7.6002-4
 HCN             2.2213-7
 HCO             1.3539-7
 HCCO            3.113-14
 HNC             1.6777-8
 HNCO            1.0840-7
 HNO             7.7158-9
 HNO2            1.057-10
 HNO3            1.217-16
 HO2             1.2630-9
 *H2             9.5398-2
 HCHO,formaldehy 3.2248-8
 HCOOH           5.1383-8
 H2O             1.6314-1
 H2O2            1.5802-9
 *N              5.4703-9
 NCO             4.764-10
 *NH             1.2802-8
 NH2             8.2831-8
 NH3             2.7182-6
 NH2OH           1.073-11
 *NO             2.3069-5
 NO2             1.542-10
 *N2             6.0346-1
 N2O             3.3774-9
 NCN             1.717-15
 N2H2            5.771-12
 N2H4            1.847-15
 N3              4.660-14
 N3H             1.446-13
 *O              1.0565-6
 *OH             2.1506-4
 *O2             7.5836-7
 O3              2.990-16

  * THERMODYNAMIC PROPERTIES FITTED TO 20000.K

