*******************************************************************************

         NASA-GLENN CHEMICAL EQUILIBRIUM PROGRAM CEA2, FEBRUARY 5, 2004
                   BY  BONNIE MCBRIDE AND SANFORD GORDON
      REFS: NASA RP-1311, PART I, 1994 AND NASA RP-1311, PART II, 1996

 *******************************************************************************



  
 ### CEA analysis performed on Mon 11-Jul-2022 13:32:32
  
 # Problem Type: "Combustion at Assigned Volume"
  
 prob case=test___________5469 uv
  
 # Density (1 value):
 rho,kg/m**3= 1.0973
  
 # Equivalence based on Fuel/Oxid. wt ratio (Eq 9.19*) (1 value):
 phi= 1.7
  
 # You selected the following fuels and oxidizers:
 reac
 fuel CH4              mole=100.0000  t,k= 300.000
 oxid Air              mole=100.0000  t,k= 300.000
  
 # You selected these options for output:
 # short version of output
 output short
 # Proportions of any products will be expressed as Mole Fractions.
 # Heat will be expressed as siunits
 output siunits
 # Trace variable:
 output trace=1e-16
  
 # Input prepared by this script:/var/www/sites/cearun.grc.nasa.gov/cgi-bin/CEARU
 N/prepareInputFile.cgi
  
 ### IMPORTANT:  The following line is the end of your CEA input file!
 end




         THERMODYNAMIC EQUILIBRIUM COMBUSTION PROPERTIES AT ASSIGNED

                                     VOLUME

 CASE = test___________

             REACTANT                       MOLES         ENERGY      TEMP
                                                         KJ/KG-MOL      K
 FUEL        CH4                        100.0000000    -77028.260    300.000
 OXIDANT     Air                        100.0000000     -2566.042    300.000

 O/F=   10.14031  %FUEL=  8.976413  R,EQ.RATIO= 1.698936  PHI,EQ.RATIO= 1.700000

 THERMODYNAMIC PROPERTIES

 P, BAR            8.2140
 T, K             2162.03
 RHO, KG/CU M    1.0973 0
 H, KJ/KG          236.92
 U, KJ/KG         -511.64
 G, KJ/KG        -21761.6
 S, KJ/(KG)(K)    10.1750

 M, (1/n)          24.014
 (dLV/dLP)t      -1.00017
 (dLV/dLT)p        1.0043
 Cp, KJ/(KG)(K)    1.6847
 GAMMAs            1.2613
 SON VEL,M/SEC      971.7

 MOLE FRACTIONS

 *Ar             7.0673-3
 *C              3.941-15
 *CH             1.173-14
 CH2             9.088-13
 CH3             1.193-10
 CH2OH           2.105-12
 CH3O            2.466-13
 CH4             1.3313-9
 CH3OH           3.320-12
 *CN             4.932-11
 *CO             1.0671-1
 *CO2            2.7896-2
 COOH            2.6678-8
 C2H2,acetylene  4.241-13
 CH2CO,ketene    3.185-12
 O(CH)2O         2.219-15
 CH3CN           1.244-15
 CH3CO,acetyl    6.831-16
 C2H4            1.182-15
 CH3CHO,ethanal  2.418-16
 OCCN            2.278-14
 C2N2            7.787-15
 C2O             5.596-14
 C3O2            2.808-15
 *H              5.3511-4
 HCN             3.2483-7
 HCO             1.1742-7
 HCCO            3.586-14
 HNC             2.1687-8
 HNCO            1.2499-7
 HNO             3.2473-9
 HNO2            3.024-11
 HO2             3.137-10
 *H2             1.1439-1
 HCHO,formaldehy 4.1071-8
 HCOOH           5.1938-8
 H2O             1.5402-1
 H2O2            5.716-10
 *N              2.1023-9
 NCO             3.053-10
 *NH             6.8100-9
 NH2             6.7298-8
 NH3             3.8499-6
 NH2OH           7.142-12
 *NO             9.1755-6
 NO2             3.268-11
 *N2             5.8926-1
 N2O             1.3172-9
 NCN             1.072-15
 N2H2            4.303-12
 N2H4            2.066-15
 N3              1.841-14
 N3H             8.248-14
 *O              3.1013-7
 *OH             1.0609-4
 *O2             1.7671-7

  * THERMODYNAMIC PROPERTIES FITTED TO 20000.K



