 *******************************************************************************

         NASA-GLENN CHEMICAL EQUILIBRIUM PROGRAM CEA2, FEBRUARY 5, 2004
                   BY  BONNIE MCBRIDE AND SANFORD GORDON
      REFS: NASA RP-1311, PART I, 1994 AND NASA RP-1311, PART II, 1996

 *******************************************************************************



  
 ### CEA analysis performed on Mon 11-Jul-2022 13:38:27
  
 # Problem Type: "Combustion at Assigned Volume"
  
 prob case=test___________5469 uv
  
 # Density (1 value):
 rho,kg/m**3= 1.0747
  
 # Equivalence based on Fuel/Oxid. wt ratio (Eq 9.19*) (1 value):
 phi= 2.3
  
 # You selected the following fuels and oxidizers:
 reac
 fuel CH4              mole=100.0000  t,k= 300.000
 oxid Air              mole=100.0000  t,k= 300.000
  
 # You selected these options for output:
 # short version of output
 output short
 # Proportions of any products will be expressed as Mole Fractions.
 # Heat will be expressed as siunits
 output siunits
 # Trace variable:
 output trace=1e-16
  
 # Input prepared by this script:/var/www/sites/cearun.grc.nasa.gov/cgi-bin/CEARU
 N/prepareInputFile.cgi
  
 ### IMPORTANT:  The following line is the end of your CEA input file!
 end




         THERMODYNAMIC EQUILIBRIUM COMBUSTION PROPERTIES AT ASSIGNED

                                     VOLUME

 CASE = test___________

             REACTANT                       MOLES         ENERGY      TEMP
                                                         KJ/KG-MOL      K
 FUEL        CH4                        100.0000000    -77028.260    300.000
 OXIDANT     Air                        100.0000000     -2566.042    300.000

 O/F=    7.49501  %FUEL= 11.771617  R,EQ.RATIO= 2.298023  PHI,EQ.RATIO= 2.300000

 THERMODYNAMIC PROPERTIES

 P, BAR            7.0695
 T, K             1716.47
 RHO, KG/CU M    1.0747 0
 H, KJ/KG          14.436
 U, KJ/KG         -643.38
 G, KJ/KG        -18166.2
 S, KJ/(KG)(K)    10.5919

 M, (1/n)          21.695
 (dLV/dLP)t      -1.00003
 (dLV/dLT)p        1.0003
 Cp, KJ/(KG)(K)    1.7160
 GAMMAs            1.2877
 SON VEL,M/SEC      920.4

 MOLE FRACTIONS

 *Ar             6.1888-3
 CH2             1.625-13
 CH3             9.698-10
 CH2OH           1.663-12
 CH3O            1.087-13
 CH4             3.4335-7
 CH3OH           5.117-11
 *CN             2.198-12
 *CO             1.4101-1
 *CO2            1.8398-2
 COOH            1.7270-9
 C2H2,acetylene  1.755-11
 C2H2,vinylidene 2.718-16
 CH2CO,ketene    6.766-11
 O(CH)2O         4.017-15
 C2H3,vinyl      8.638-16
 CH3CN           6.328-13
 CH3CO,acetyl    1.050-14
 C2H4            1.182-12
 CH3CHO,ethanal  5.022-14
 CH3COOH         4.203-15
 C2H6            3.802-15
 OCCN            5.514-15
 C2N2            3.943-14
 C2O             4.859-15
 C3O2            1.245-14
 *H              3.0261-5
 HCN             1.4935-6
 HCO             2.2447-8
 HCCO            2.164-14
 HNC             4.0547-8
 HNCO            1.9695-7
 HNO             8.767-12
 HNO2            9.397-15
 HO2             3.362-14
 *H2             2.1887-1
 HCHO,formaldehy 9.3239-8
 HCOOH           4.3631-8
 H2O             9.9481-2
 H2O2            6.775-13
 *N              2.078-12
 NCO             9.408-12
 *NH             5.080-11
 NH2             7.8397-9
 NH3             1.8338-5
 NH2OH           2.820-13
 *NO             2.2167-8
 NO2             1.588-15
 *N2             5.1601-1
 N2O             2.886-12
 N2H2            2.896-13
 N2H4            1.339-15
 N3H             1.095-15
 *O              8.125-11
 *OH             8.5533-7
 *O2             1.654-11

  * THERMODYNAMIC PROPERTIES FITTED TO 20000.K


