

         NASA-GLENN CHEMICAL EQUILIBRIUM PROGRAM CEA2, FEBRUARY 5, 2004
                   BY  BONNIE MCBRIDE AND SANFORD GORDON
      REFS: NASA RP-1311, PART I, 1994 AND NASA RP-1311, PART II, 1996

 *******************************************************************************

  
 ### CEA analysis performed on Thu 06-Jun-2024 15:35:32
  
 # Problem Type: "Combustion at Assigned Volume"
  
 prob case=test___________8300 uv
  
 # Density (1 value):
 rho,kg/m**3= 1
  
 # Equivalence based on Fuel/Oxid. wt ratio (Eq 9.19*) (26 values):
 phi= 0.5, 0.6, 0.7, 0.8, 0.9, 1, 1.1, 1.2, 1.3, 1.4, 1.5, 1.6, 1.7, 1.8, 1.9, 2,
  2.1, 2.2, 2.3, 2.4, 2.5, 2.6, 2.7, 2.8, 2.9, 3
  
 # You selected the following fuels and oxidizers:
 reac
 fuel CH4              mole=100.0000  t,k= 300.000
 oxid Air              mole=100.0000  t,k= 300.000
  
 # You selected these options for output:
 # short version of output
 output short
 # Proportions of any products will be expressed as Mole Fractions.
 # Heat will be expressed as siunits
 output siunits
 # Trace variable:
 output trace=1e-16
  
 # Input prepared by this script:/var/www/sites/cearun.grc.nasa.gov/cgi-bin/CEARU
 N/prepareInputFile.cgi
  
 ### IMPORTANT:  The following line is the end of your CEA input file!
 end

         THERMODYNAMIC EQUILIBRIUM COMBUSTION PROPERTIES AT ASSIGNED

                                     VOLUME

 CASE = test___________

             REACTANT                       MOLES         ENERGY      TEMP
                                                         KJ/KG-MOL      K
 FUEL        CH4                        100.0000000    -77028.260    300.000
 OXIDANT     Air                        100.0000000     -2566.042    300.000

 O/F=   34.47704  %FUEL=  2.818724  R,EQ.RATIO= 0.500760  PHI,EQ.RATIO= 0.500000

 THERMODYNAMIC PROPERTIES

 P, BAR            5.2980
 T, K             1804.44
 RHO, KG/CU M    1.0000 0
 H, KJ/KG          308.36
 U, KJ/KG         -221.44
 G, KJ/KG        -15428.7
 S, KJ/(KG)(K)     8.7213

 M, (1/n)          28.319
 (dLV/dLP)t      -1.00004
 (dLV/dLT)p        1.0015
 Cp, KJ/(KG)(K)    1.4013
 GAMMAs            1.2660
 SON VEL,M/SEC      819.0

 MOLE FRACTIONS

 *Ar             8.8979-3
 *CO             1.4936-5
 *CO2            5.0045-2
 COOH            4.437-11
 *H              4.4938-7
 HCO             2.048-14
 HNCO            1.091-13
 HNO             5.8496-9
 HNO2            2.2870-7
 HNO3            1.438-10
 HO2             1.0521-6
 *H2             7.7245-6
 HCHO,formaldehy 2.579-16
 HCOOH           3.322-12
 H2O             9.9284-2
 H2O2            6.5465-8
 *N              1.479-11
 NCO             2.423-15
 *NH             1.224-12
 NH2             5.377-13
 NH3             2.850-12
 NH2OH           2.962-15
 *NO             2.7941-3
 NO2             1.1007-5
 NO3             1.865-11
 *N2             7.4049-1
 N2O             3.7220-7
 N2O3            3.885-13
 N3              1.585-16
 *O              1.7250-5
 *OH             4.4126-4
 *O2             9.7997-2
 O3              1.6009-9

  * THERMODYNAMIC PROPERTIES FITTED TO 20000.K

         THERMODYNAMIC EQUILIBRIUM COMBUSTION PROPERTIES AT ASSIGNED

                                     VOLUME

 CASE = test___________

             REACTANT                       MOLES         ENERGY      TEMP
                                                         KJ/KG-MOL      K
 FUEL        CH4                        100.0000000    -77028.260    300.000
 OXIDANT     Air                        100.0000000     -2566.042    300.000

 O/F=   28.73087  %FUEL=  3.363507  R,EQ.RATIO= 0.600608  PHI,EQ.RATIO= 0.600000

 THERMODYNAMIC PROPERTIES

 P, BAR            5.9593
 T, K             2020.30
 RHO, KG/CU M    1.0000 0
 H, KJ/KG          348.82
 U, KJ/KG         -247.11
 G, KJ/KG        -17644.2
 S, KJ/(KG)(K)     8.9061

 M, (1/n)          28.187
 (dLV/dLP)t      -1.00016
 (dLV/dLT)p        1.0056
 Cp, KJ/(KG)(K)    1.4939
 GAMMAs            1.2492
 SON VEL,M/SEC      862.8

 MOLE FRACTIONS

 *Ar             8.8070-3
 *CO             1.3733-4
 *CO2            5.9261-2
 COOH            5.447-10
 *H              5.8520-6
 HCN             5.183-15
 HCO             1.612-12
 HNC             2.715-16
 HNCO            2.984-12
 HNO             3.0694-8
 HNO2            3.1897-7
 HNO3            1.311-10
 HO2             2.5231-6
 *H2             5.8473-5
 HCHO,formaldehy 1.976-14
 HCOOH           3.799-11
 H2O             1.1745-1
 H2O2            1.5835-7
 *N              4.222-10
 NCO             1.398-13
 *NH             4.258-11
 NH2             1.591-11
 NH3             4.464-11
 NH2OH           4.506-14
 *NO             4.6980-3
 NO2             1.1617-5
 NO3             2.528-11
 *N2             7.3196-1
 N2O             6.4555-7
 N2H2            8.581-16
 N2O3            6.390-13
 N3              3.850-15
 N3H             5.838-16
 *O              8.8201-5
 *OH             1.3742-3
 *O2             7.6147-2
 O3              3.3190-9

  * THERMODYNAMIC PROPERTIES FITTED TO 20000.K

         THERMODYNAMIC EQUILIBRIUM COMBUSTION PROPERTIES AT ASSIGNED

                                     VOLUME

 CASE = test___________

             REACTANT                       MOLES         ENERGY      TEMP
                                                         KJ/KG-MOL      K
 FUEL        CH4                        100.0000000    -77028.260    300.000
 OXIDANT     Air                        100.0000000     -2566.042    300.000

 O/F=   24.62646  %FUEL=  3.902217  R,EQ.RATIO= 0.700456  PHI,EQ.RATIO= 0.700000

 THERMODYNAMIC PROPERTIES

 P, BAR            6.5603
 T, K             2212.61
 RHO, KG/CU M    1.0000 0
 H, KJ/KG          383.53
 U, KJ/KG         -272.50
 G, KJ/KG        -19692.8
 S, KJ/(KG)(K)     9.0736

 M, (1/n)          28.042
 (dLV/dLP)t      -1.00053
 (dLV/dLT)p        1.0164
 Cp, KJ/(KG)(K)    1.6307
 GAMMAs            1.2305
 SON VEL,M/SEC      898.5

 MOLE FRACTIONS

 *Ar             8.7129-3
 *CN             1.372-15
 *CO             7.4015-4
 *CO2            6.7768-2
 COOH            3.5706-9
 *H              3.9308-5
 HCN             2.700-13
 HCO             4.338-11
 HNC             1.951-14
 HNCO            3.755-11
 HNO             1.0043-7
 HNO2            3.7174-7
 HNO3            1.054-10
 HO2             4.3252-6
 *H2             2.7636-4
 HCHO,formaldehy 5.486-13
 HCOOH           2.496-10
 H2O             1.3460-1
 H2O2            2.8647-7
 *N              4.8016-9
 NCO             2.889-12
 *NH             5.841-10
 NH2             2.035-10
 NH3             3.772-10
 NH2OH           3.520-13
 *NO             6.3645-3
 NO2             1.0526-5
 NO3             2.581-11
 *N2             7.2328-1
 N2O             9.0280-7
 N2H2            1.341-14
 N2O3            7.553-13
 N3              3.934-14
 N3H             6.443-15
 *O              2.6772-4
 *OH             3.0378-3
 *O2             5.4895-2
 O3              4.6205-9

  * THERMODYNAMIC PROPERTIES FITTED TO 20000.K

         THERMODYNAMIC EQUILIBRIUM COMBUSTION PROPERTIES AT ASSIGNED

                                     VOLUME

 CASE = test___________

             REACTANT                       MOLES         ENERGY      TEMP
                                                         KJ/KG-MOL      K
 FUEL        CH4                        100.0000000    -77028.260    300.000
 OXIDANT     Air                        100.0000000     -2566.042    300.000

 O/F=   21.54815  %FUEL=  4.434953  R,EQ.RATIO= 0.800304  PHI,EQ.RATIO= 0.800000

 THERMODYNAMIC PROPERTIES

 P, BAR            7.0910
 T, K             2376.66
 RHO, KG/CU M    1.0000 0
 H, KJ/KG          411.49
 U, KJ/KG         -297.61
 G, KJ/KG        -21518.6
 S, KJ/(KG)(K)     9.2273

 M, (1/n)          27.867
 (dLV/dLP)t      -1.00144
 (dLV/dLT)p        1.0406
 Cp, KJ/(KG)(K)    1.8565
 GAMMAs            1.2086
 SON VEL,M/SEC      925.8

 MOLE FRACTIONS

 *Ar             8.6105-3
 *CN             5.030-14
 *CO             2.7564-3
 *CO2            7.4576-2
 COOH            1.4800-8
 *H              1.6509-4
 HCN             6.143-12
 HCO             5.511-10
 HNC             5.600-13
 HNCO            2.763-10
 HNO             2.2824-7
 HNO2            3.6122-7
 HNO3            7.107-11
 HO2             5.5342-6
 *H2             9.5290-4
 HCHO,formaldehy 7.586-12
 HCOOH           1.1051-9
 H2O             1.5047-1
 H2O2            4.0486-7
 *N              2.7875-8
 NCO             2.869-11
 *NH             4.1187-9
 NH2             1.4493-9
 NH3             2.1139-9
 NH2OH           1.698-12
 *NO             7.1440-3
 NO2             8.0126-6
 NO3             1.947-11
 *N2             7.1435-1
 N2O             1.0430-6
 N2H2            1.117-13
 N2O3            6.356-13
 N3              2.127-13
 N3H             3.914-14
 *O              5.3899-4
 *OH             5.1491-3
 *O2             3.5274-2
 O3              4.3810-9

  * THERMODYNAMIC PROPERTIES FITTED TO 20000.K

         THERMODYNAMIC EQUILIBRIUM COMBUSTION PROPERTIES AT ASSIGNED

                                     VOLUME

 CASE = test___________

             REACTANT                       MOLES         ENERGY      TEMP
                                                         KJ/KG-MOL      K
 FUEL        CH4                        100.0000000    -77028.260    300.000
 OXIDANT     Air                        100.0000000     -2566.042    300.000

 O/F=   19.15391  %FUEL=  4.961816  R,EQ.RATIO= 0.900152  PHI,EQ.RATIO= 0.900000

 THERMODYNAMIC PROPERTIES

 P, BAR            7.5316
 T, K             2503.68
 RHO, KG/CU M    1.0000 0
 H, KJ/KG          430.72
 U, KJ/KG         -322.44
 G, KJ/KG        -23027.6
 S, KJ/(KG)(K)     9.3695

 M, (1/n)          27.639
 (dLV/dLP)t      -1.00313
 (dLV/dLT)p        1.0832
 Cp, KJ/(KG)(K)    2.2037
 GAMMAs            1.1863
 SON VEL,M/SEC      945.2

 MOLE FRACTIONS

 *Ar             8.4930-3
 *C              5.237-16
 CH2             1.989-16
 CH3             5.853-16
 CH2OH           9.227-16
 CH3O            1.505-16
 CH4             1.823-16
 *CN             7.929-13
 *CO             7.7506-3
 *CO2            7.8025-2
 COOH            4.1939-8
 *H              4.7887-4
 HCN             7.641-11
 HCO             3.9235-9
 HNC             8.163-12
 HNCO            1.3572-9
 HNO             3.7331-7
 HNO2            2.8196-7
 HNO3            3.698-11
 HO2             5.2031-6
 *H2             2.6362-3
 HCHO,formaldehy 6.264-11
 HCOOH           3.5880-9
 H2O             1.6467-1
 H2O2            4.4536-7
 *N              9.2413-8
 NCO             1.584-10
 *NH             1.7034-8
 NH2             6.5984-9
 NH3             8.9324-9
 NH2OH           5.558-12
 *NO             6.5723-3
 NO2             4.8384-6
 NO3             1.001-11
 *N2             7.0484-1
 N2O             9.8172-7
 N2H2            5.695-13
 N2O3            3.527-13
 N3              6.738-13
 N3H             1.469-13
 *O              7.3933-4
 *OH             6.8543-3
 *O2             1.8931-2
 O3              2.6434-9

  * THERMODYNAMIC PROPERTIES FITTED TO 20000.K

         THERMODYNAMIC EQUILIBRIUM COMBUSTION PROPERTIES AT ASSIGNED

                                     VOLUME

 CASE = test___________

             REACTANT                       MOLES         ENERGY      TEMP
                                                         KJ/KG-MOL      K
 FUEL        CH4                        100.0000000    -77028.260    300.000
 OXIDANT     Air                        100.0000000     -2566.042    300.000

 O/F=   17.23852  %FUEL=  5.482900  R,EQ.RATIO= 1.000000  PHI,EQ.RATIO= 1.000000

 THERMODYNAMIC PROPERTIES

 P, BAR            7.8527
 T, K             2581.43
 RHO, KG/CU M    1.0000 0
 H, KJ/KG          438.27
 U, KJ/KG         -347.00
 G, KJ/KG        -24089.6
 S, KJ/(KG)(K)     9.5016

 M, (1/n)          27.332
 (dLV/dLP)t      -1.00473
 (dLV/dLT)p        1.1223
 Cp, KJ/(KG)(K)    2.5170
 GAMMAs            1.1730
 SON VEL,M/SEC      959.8

 MOLE FRACTIONS

 *Ar             8.3526-3
 *C              6.096-15
 *CH             1.355-15
 CH2             3.532-15
 CH3             1.148-14
 CH2OH           9.228-15
 CH3O            1.607-15
 CH4             4.130-15
 CH3OH           6.205-16
 *CN             6.198-12
 *CO             1.7407-2
 *CO2            7.6293-2
 COOH            8.3610-8
 CH2CO,ketene    1.090-16
 OCCN            1.718-16
 C2O             8.275-16
 *H              1.0073-3
 HCN             6.079-10
 HCO             1.7300-8
 HNC             7.101-11
 HNCO            4.8583-9
 HNO             4.3226-7
 HNO2            1.6328-7
 HNO3            1.295-11
 HO2             3.3448-6
 *H2             6.2761-3
 HCHO,formaldehy 3.494-10
 HCOOH           8.9875-9
 H2O             1.7652-1
 H2O2            3.6375-7
 *N              1.8023-7
 NCO             5.206-10
 *NH             4.3748-8
 NH2             2.0806-8
 NH3             3.1412-8
 NH2OH           1.287-11
 *NO             4.7245-3
 NO2             2.0844-6
 NO3             2.991-12
 *N2             6.9406-1
 N2O             7.1539-7
 NCN             2.794-16
 N2H2            1.918-12
 NH2NO2          1.000-16
 N2O3            1.101-13
 N3              1.281-12
 N3H             3.573-13
 *O              6.6586-4
 *OH             7.0552-3
 *O2             7.6289-3
 O3              8.670-10

  * THERMODYNAMIC PROPERTIES FITTED TO 20000.K

         THERMODYNAMIC EQUILIBRIUM COMBUSTION PROPERTIES AT ASSIGNED

                                     VOLUME

 CASE = test___________

             REACTANT                       MOLES         ENERGY      TEMP
                                                         KJ/KG-MOL      K
 FUEL        CH4                        100.0000000    -77028.260    300.000
 OXIDANT     Air                        100.0000000     -2566.042    300.000

 O/F=   15.67138  %FUEL=  5.998302  R,EQ.RATIO= 1.099848  PHI,EQ.RATIO= 1.100000

 THERMODYNAMIC PROPERTIES

 P, BAR            8.0188
 T, K             2596.85
 RHO, KG/CU M    1.0000 0
 H, KJ/KG          430.59
 U, KJ/KG         -371.29
 G, KJ/KG        -24562.4
 S, KJ/(KG)(K)     9.6243

 M, (1/n)          26.926
 (dLV/dLP)t      -1.00382
 (dLV/dLT)p        1.0989
 Cp, KJ/(KG)(K)    2.3577
 GAMMAs            1.1825
 SON VEL,M/SEC      973.8

 MOLE FRACTIONS

 *Ar             8.1836-3
 *C              2.700-14
 *CH             8.553-15
 CH2             3.101-14
 CH3             1.388-13
 CH2OH           5.610-14
 CH3O            9.891-15
 CH4             6.946-14
 CH3OH           5.287-15
 *CN             2.541-11
 *CO             3.2180-2
 *CO2            6.8776-2
 COOH            1.1677-7
 CH2CO,ketene    1.655-15
 HO(CO)2OH       1.202-16
 OCCN            1.291-15
 C2O             6.356-15
 *H              1.5499-3
 HCN             3.3808-9
 HCO             4.9196-8
 HCCO            4.622-16
 HNC             4.017-10
 HNCO            1.3257-8
 HNO             3.3867-7
 HNO2            6.4047-8
 HNO3            2.637-12
 HO2             1.3404-6
 *H2             1.3368-2
 HCHO,formaldehy 1.4052-9
 HCOOH           1.7730-8
 H2O             1.8451-1
 H2O2            2.0632-7
 *N              2.0185-7
 NCO             1.0338-9
 *NH             6.9822-8
 NH2             4.6694-8
 NH3             9.7326-8
 NH2OH           2.104-11
 *NO             2.4990-3
 NO2             5.7145-7
 NO3             4.370-13
 *N2             6.8109-1
 N2O             3.7885-7
 NCN             1.171-15
 N2H2            4.352-12
 N2O3            1.620-14
 N3              1.424-12
 N3H             5.628-13
 *O              3.6827-4
 *OH             5.4120-3
 *O2             2.0680-3
 O3              1.292-10

  * THERMODYNAMIC PROPERTIES FITTED TO 20000.K

         THERMODYNAMIC EQUILIBRIUM COMBUSTION PROPERTIES AT ASSIGNED

                                     VOLUME

 CASE = test___________

             REACTANT                       MOLES         ENERGY      TEMP
                                                         KJ/KG-MOL      K
 FUEL        CH4                        100.0000000    -77028.260    300.000
 OXIDANT     Air                        100.0000000     -2566.042    300.000

 O/F=   14.36544  %FUEL=  6.508114  R,EQ.RATIO= 1.199696  PHI,EQ.RATIO= 1.200000

 THERMODYNAMIC PROPERTIES

 P, BAR            8.0354
 T, K             2555.21
 RHO, KG/CU M    1.0000 0
 H, KJ/KG          408.22
 U, KJ/KG         -395.31
 G, KJ/KG        -24474.7
 S, KJ/(KG)(K)     9.7381

 M, (1/n)          26.440
 (dLV/dLP)t      -1.00199
 (dLV/dLT)p        1.0518
 Cp, KJ/(KG)(K)    2.0030
 GAMMAs            1.2073
 SON VEL,M/SEC      984.9

 MOLE FRACTIONS

 *Ar             7.9922-3
 *C              4.893-14
 *CH             2.327-14
 CH2             1.354-13
 CH3             9.981-13
 CH2OH           2.053-13
 CH3O            3.498-14
 CH4             8.025-13
 CH3OH           3.042-14
 *CN             5.647-11
 *CO             4.9292-2
 *CO2            5.8241-2
 COOH            1.1821-7
 C2H2,acetylene  4.310-16
 CH2CO,ketene    1.408-14
 O(CH)2O         1.256-16
 HO(CO)2OH       1.529-16
 OCCN            4.768-15
 C2O             2.230-14
 *H              1.7797-3
 HCN             1.2904-8
 HCO             9.1870-8
 HCCO            2.422-15
 HNC             1.4636-9
 HNCO            2.7503-8
 HNO             1.8958-7
 HNO2            1.8443-8
 HNO3            3.537-13
 HO2             3.6680-7
 *H2             2.4947-2
 HCHO,formaldehy 4.0235-9
 HCOOH           2.7614-8
 H2O             1.8707-1
 H2O2            8.6375-8
 *N              1.3862-7
 NCO             1.2935-9
 *NH             7.2007-8
 NH2             7.4997-8
 NH3             2.5597-7
 NH2OH           2.465-11
 *NO             1.0351-3
 NO2             1.1078-7
 NO3             3.673-14
 *N2             6.6586-1
 N2O             1.5527-7
 NCN             2.433-15
 N2H2            6.730-12
 N2H4            2.380-16
 N2O3            1.326-15
 N3              9.841-13
 N3H             5.929-13
 *O              1.3608-4
 *OH             3.2333-3
 *O2             4.1654-4
 O3              1.038-11

  * THERMODYNAMIC PROPERTIES FITTED TO 20000.K

         THERMODYNAMIC EQUILIBRIUM COMBUSTION PROPERTIES AT ASSIGNED

                                     VOLUME

 CASE = test___________

             REACTANT                       MOLES         ENERGY      TEMP
                                                         KJ/KG-MOL      K
 FUEL        CH4                        100.0000000    -77028.260    300.000
 OXIDANT     Air                        100.0000000     -2566.042    300.000

 O/F=   13.26040  %FUEL=  7.012425  R,EQ.RATIO= 1.299544  PHI,EQ.RATIO= 1.300000

 THERMODYNAMIC PROPERTIES

 P, BAR            7.9680
 T, K             2484.64
 RHO, KG/CU M    1.0000 0
 H, KJ/KG          377.71
 U, KJ/KG         -419.08
 G, KJ/KG        -24080.8
 S, KJ/(KG)(K)     9.8439

 M, (1/n)          25.927
 (dLV/dLP)t      -1.00106
 (dLV/dLT)p        1.0276
 Cp, KJ/(KG)(K)    1.8212
 GAMMAs            1.2268
 SON VEL,M/SEC      988.7

 MOLE FRACTIONS

 *Ar             7.7949-3
 *C              4.815-14
 *CH             3.416-14
 CH2             3.340-13
 CH3             4.322-12
 CH2OH           4.856-13
 CH3O            7.788-14
 CH4             5.855-12
 CH3OH           1.165-13
 *CN             7.994-11
 *CO             6.5027-2
 *CO2            4.8570-2
 COOH            9.8214-8
 C2H2,acetylene  3.333-15
 CH2CO,ketene    6.936-14
 O(CH)2O         3.325-16
 HO(CO)2OH       1.532-16
 OCCN            1.016-14
 C2N2            3.741-16
 C2O             4.332-14
 C3O2            1.964-16
 *H              1.6716-3
 HCN             3.4583-8
 HCO             1.2504-7
 HCCO            6.959-15
 HNC             3.6118-9
 HNCO            4.5196-8
 HNO             9.0250-8
 HNO2            4.8812-9
 HNO3            4.369-14
 HO2             8.8518-8
 *H2             4.0212-2
 HCHO,formaldehy 8.4813-9
 HCOOH           3.5757-8
 H2O             1.8475-1
 H2O2            3.2150-8
 *N              7.2252-8
 NCO             1.1951-9
 *NH             5.5998-8
 NH2             9.2849-8
 NH3             5.5135-7
 NH2OH           2.291-11
 *NO             3.9769-4
 NO2             2.0025-8
 NO3             2.729-15
 *N2             6.4973-1
 N2O             5.8662-8
 NCN             3.066-15
 N2H2            7.810-12
 N2H4            5.218-16
 N3              5.205-13
 N3H             4.806-13
 *O              4.2634-5
 *OH             1.7229-3
 *O2             8.0425-5
 O3              7.108-13

  * THERMODYNAMIC PROPERTIES FITTED TO 20000.K

         THERMODYNAMIC EQUILIBRIUM COMBUSTION PROPERTIES AT ASSIGNED

                                     VOLUME

 CASE = test___________

             REACTANT                       MOLES         ENERGY      TEMP
                                                         KJ/KG-MOL      K
 FUEL        CH4                        100.0000000    -77028.260    300.000
 OXIDANT     Air                        100.0000000     -2566.042    300.000

 O/F=   12.31323  %FUEL=  7.511325  R,EQ.RATIO= 1.399392  PHI,EQ.RATIO= 1.400000

 THERMODYNAMIC PROPERTIES

 P, BAR            7.8655
 T, K             2404.82
 RHO, KG/CU M    1.0000 0
 H, KJ/KG          343.96
 U, KJ/KG         -442.59
 G, KJ/KG        -23567.0
 S, KJ/(KG)(K)     9.9429

 M, (1/n)          25.421
 (dLV/dLP)t      -1.00064
 (dLV/dLT)p        1.0164
 Cp, KJ/(KG)(K)    1.7438
 GAMMAs            1.2394
 SON VEL,M/SEC      987.3

 MOLE FRACTIONS

 *Ar             7.6017-3
 *C              3.348-14
 *CH             3.450-14
 CH2             5.648-13
 CH3             1.292-11
 CH2OH           8.536-13
 CH3O            1.275-13
 CH4             2.946-11
 CH3OH           3.283-13
 *CN             8.612-11
 *CO             7.8251-2
 *CO2            4.1032-2
 COOH            7.4180-8
 C2H2,acetylene  1.575-14
 CH2CO,ketene    2.320-13
 O(CH)2O         6.424-16
 HO(CO)2OH       1.365-16
 OCCN            1.540-14
 C2N2            1.035-15
 C2O             5.872-14
 C3O2            4.794-16
 *H              1.3966-3
 HCN             7.2065-8
 HCO             1.4031-7
 HCCO            1.356-14
 HNC             6.8149-9
 HNCO            6.3697-8
 HNO             4.0639-8
 HNO2            1.3206-9
 HNO3            5.762-15
 HO2             2.1409-8
 *H2             5.7720-2
 HCHO,formaldehy 1.4465-8
 HCOOH           4.1365-8
 H2O             1.7919-1
 H2O2            1.1754-8
 *N              3.3152-8
 NCO             9.389-10
 *NH             3.7314-8
 NH2             9.7165-8
 NH3             1.0082-6
 NH2OH           1.859-11
 *NO             1.5393-4
 NO2             3.8147-9
 NO3             2.175-16
 *N2             6.3374-1
 N2O             2.2287-8
 NCN             2.876-15
 N2H2            7.581-12
 N2H4            8.769-16
 N3              2.436-13
 N3H             3.375-13
 *O              1.2907-5
 *OH             8.8638-4
 *O2             1.6565-5
 O3              5.144-14

  * THERMODYNAMIC PROPERTIES FITTED TO 20000.K

         THERMODYNAMIC EQUILIBRIUM COMBUSTION PROPERTIES AT ASSIGNED

                                     VOLUME

 CASE = test___________

             REACTANT                       MOLES         ENERGY      TEMP
                                                         KJ/KG-MOL      K
 FUEL        CH4                        100.0000000    -77028.260    300.000
 OXIDANT     Air                        100.0000000     -2566.042    300.000

 O/F=   11.49235  %FUEL=  8.004900  R,EQ.RATIO= 1.499240  PHI,EQ.RATIO= 1.500000

 THERMODYNAMIC PROPERTIES

 P, BAR            7.7472
 T, K             2323.07
 RHO, KG/CU M    1.0000 0
 H, KJ/KG          308.86
 U, KJ/KG         -465.86
 G, KJ/KG        -23005.6
 S, KJ/(KG)(K)    10.0361

 M, (1/n)          24.932
 (dLV/dLP)t      -1.00041
 (dLV/dLT)p        1.0105
 Cp, KJ/(KG)(K)    1.7088
 GAMMAs            1.2482
 SON VEL,M/SEC      983.4

 MOLE FRACTIONS

 *Ar             7.4157-3
 *C              1.883-14
 *CH             2.755-14
 CH2             7.479-13
 CH3             3.011-11
 CH2OH           1.238-12
 CH3O            1.712-13
 CH4             1.148-10
 CH3OH           7.542-13
 *CN             7.831-11
 *CO             8.9272-2
 *CO2            3.5386-2
 COOH            5.3369-8
 C2H2,acetylene  5.382-14
 CH2CO,ketene    6.040-13
 O(CH)2O         1.021-15
 HO(CO)2OH       1.152-16
 CH3CO,acetyl    1.206-16
 OCCN            1.895-14
 C2N2            2.217-15
 C2O             6.391-14
 C3O2            9.260-16
 *H              1.0833-3
 HCN             1.2735-7
 HCO             1.3987-7
 HCCO            2.070-14
 HNC             1.0800-8
 HNCO            8.1620-8
 HNO             1.7857-8
 HNO2            3.693-10
 HNO3            8.164-16
 HO2             5.2885-9
 *H2             7.6354-2
 HCHO,formaldehy 2.1525-8
 HCOOH           4.4810-8
 H2O             1.7169-1
 H2O2            4.3065-9
 *N              1.4152-8
 NCO             6.725-10
 *NH             2.2601-8
 NH2             9.1026-8
 NH3             1.6421-6
 NH2OH           1.386-11
 *NO             6.0667-5
 NO2             7.700-10
 *N2             6.1828-1
 N2O             8.6204-9
 NCN             2.250-15
 N2H2            6.558-12
 N2H4            1.230-15
 N3              1.065-13
 N3H             2.170-13
 *O              3.8844-6
 *OH             4.4958-4
 *O2             3.6378-6
 O3              4.010-15

  * THERMODYNAMIC PROPERTIES FITTED TO 20000.K

         THERMODYNAMIC EQUILIBRIUM COMBUSTION PROPERTIES AT ASSIGNED

                                     VOLUME

 CASE = test___________

             REACTANT                       MOLES         ENERGY      TEMP
                                                         KJ/KG-MOL      K
 FUEL        CH4                        100.0000000    -77028.260    300.000
 OXIDANT     Air                        100.0000000     -2566.042    300.000

 O/F=   10.77408  %FUEL=  8.493235  R,EQ.RATIO= 1.599088  PHI,EQ.RATIO= 1.600000

 THERMODYNAMIC PROPERTIES

 P, BAR            7.6195
 T, K             2241.79
 RHO, KG/CU M    1.0000 0
 H, KJ/KG          273.07
 U, KJ/KG         -488.87
 G, KJ/KG        -22422.7
 S, KJ/(KG)(K)    10.1240

 M, (1/n)          24.463
 (dLV/dLP)t      -1.00027
 (dLV/dLT)p        1.0069
 Cp, KJ/(KG)(K)    1.6928
 GAMMAs            1.2551
 SON VEL,M/SEC      977.9

 MOLE FRACTIONS

 *Ar             7.2376-3
 *C              9.122-15
 *CH             1.868-14
 CH2             8.367-13
 CH3             5.929-11
 CH2OH           1.577-12
 CH3O            2.010-13
 CH4             3.773-10
 CH3OH           1.511-12
 *CN             6.339-11
 *CO             9.8615-2
 *CO2            3.1143-2
 COOH            3.7266-8
 C2H2,acetylene  1.483-13
 CH2CO,ketene    1.336-12
 O(CH)2O         1.431-15
 CH3CN           2.688-16
 CH3CO,acetyl    2.734-16
 C2H4            2.215-16
 OCCN            2.033-14
 C2N2            4.012-15
 C2O             6.013-14
 C3O2            1.543-15
 *H              7.9607-4
 HCN             2.0165-7
 HCO             1.2883-7
 HCCO            2.689-14
 HNC             1.5223-8
 HNCO            9.8405-8
 HNO             7.6921-9
 HNO2            1.053-10
 HNO3            1.210-16
 HO2             1.3197-9
 *H2             9.5389-2
 HCHO,formaldehy 2.9273-8
 HCOOH           4.6644-8
 H2O             1.6312-1
 H2O2            1.5752-9
 *N              5.7179-9
 NCO             4.529-10
 *NH             1.2762-8
 NH2             7.8793-8
 NH3             2.4686-6
 NH2OH           9.720-12
 *NO             2.4141-5
 NO2             1.611-10
 *N2             6.0345-1
 N2O             3.3676-9
 NCN             1.554-15
 N2H2            5.229-12
 N2H4            1.521-15
 N3              4.423-14
 N3H             1.310-13
 *O              1.1587-6
 *OH             2.2515-4
 *O2             8.3173-7
 O3              3.268-16

  * THERMODYNAMIC PROPERTIES FITTED TO 20000.K

         THERMODYNAMIC EQUILIBRIUM COMBUSTION PROPERTIES AT ASSIGNED

                                     VOLUME

 CASE = test___________

             REACTANT                       MOLES         ENERGY      TEMP
                                                         KJ/KG-MOL      K
 FUEL        CH4                        100.0000000    -77028.260    300.000
 OXIDANT     Air                        100.0000000     -2566.042    300.000

 O/F=   10.14031  %FUEL=  8.976413  R,EQ.RATIO= 1.698936  PHI,EQ.RATIO= 1.700000

 THERMODYNAMIC PROPERTIES

 P, BAR            7.4850
 T, K             2161.80
 RHO, KG/CU M    1.0000 0
 H, KJ/KG          236.86
 U, KJ/KG         -511.64
 G, KJ/KG        -21828.9
 S, KJ/(KG)(K)    10.2071

 M, (1/n)          24.014
 (dLV/dLP)t      -1.00017
 (dLV/dLT)p        1.0045
 Cp, KJ/(KG)(K)    1.6865
 GAMMAs            1.2610
 SON VEL,M/SEC      971.5

 MOLE FRACTIONS

 *Ar             7.0672-3
 *C              3.928-15
 *CH             1.117-14
 CH2             8.269-13
 CH3             1.037-10
 CH2OH           1.830-12
 CH3O            2.143-13
 CH4             1.1066-9
 CH3OH           2.758-12
 *CN             4.700-11
 *CO             1.0671-1
 *CO2            2.7898-2
 COOH            2.5442-8
 C2H2,acetylene  3.522-13
 CH2CO,ketene    2.645-12
 O(CH)2O         1.842-15
 CH3CN           9.420-16
 CH3CO,acetyl    5.415-16
 C2H4            8.951-16
 CH3CHO,ethanal  1.832-16
 OCCN            1.980-14
 C2N2            6.464-15
 C2O             5.091-14
 C3O2            2.331-15
 *H              5.5981-4
 HCN             2.9598-7
 HCO             1.1198-7
 HCCO            3.116-14
 HNC             1.9754-8
 HNCO            1.1389-7
 HNO             3.2406-9
 HNO2            3.017-11
 HO2             3.277-10
 *H2             1.1438-1
 HCHO,formaldehy 3.7422-8
 HCOOH           4.7325-8
 H2O             1.5401-1
 H2O2            5.704-10
 *N              2.1962-9
 NCO             2.910-10
 *NH             6.7959-9
 NH2             6.4170-8
 NH3             3.5089-6
 NH2OH           6.500-12
 *NO             9.5931-6
 NO2             3.413-11
 *N2             5.8925-1
 N2O             1.3146-9
 NCN             9.751-16
 N2H2            3.916-12
 N2H4            1.714-15
 N3              1.753-14
 N3H             7.503-14
 *O              3.3936-7
 *OH             1.1095-4
 *O2             1.9336-7

  * THERMODYNAMIC PROPERTIES FITTED TO 20000.K

         THERMODYNAMIC EQUILIBRIUM COMBUSTION PROPERTIES AT ASSIGNED

                                     VOLUME

 CASE = test___________

             REACTANT                       MOLES         ENERGY      TEMP
                                                         KJ/KG-MOL      K
 FUEL        CH4                        100.0000000    -77028.260    300.000
 OXIDANT     Air                        100.0000000     -2566.042    300.000

 O/F=    9.57696  %FUEL=  9.454515  R,EQ.RATIO= 1.798784  PHI,EQ.RATIO= 1.800000

 THERMODYNAMIC PROPERTIES

 P, BAR            7.3450
 T, K             2083.41
 RHO, KG/CU M    1.0000 0
 H, KJ/KG          200.32
 U, KJ/KG         -534.18
 G, KJ/KG        -21229.2
 S, KJ/(KG)(K)    10.2858

 M, (1/n)          23.584
 (dLV/dLP)t      -1.00011
 (dLV/dLT)p        1.0030
 Cp, KJ/(KG)(K)    1.6858
 GAMMAs            1.2662
 SON VEL,M/SEC      964.4

 MOLE FRACTIONS

 *Ar             6.9043-3
 *C              1.527-15
 *CH             6.017-15
 CH2             7.414-13
 CH3             1.665-10
 CH2OH           1.980-12
 CH3O            2.124-13
 CH4             3.0091-9
 CH3OH           4.721-12
 *CN             3.243-11
 *CO             1.1386-1
 *CO2            2.5369-2
 COOH            1.7026-8
 C2H2,acetylene  7.535-13
 C2H2,vinylidene 1.069-16
 CH2CO,ketene    4.854-12
 O(CH)2O         2.231-15
 CH3CN           2.981-15
 CH3CO,acetyl    9.750-16
 C2H4            3.223-15
 CH3CHO,ethanal  4.957-16
 OCCN            1.789-14
 C2N2            9.581-15
 C2O             3.967-14
 C3O2            3.290-15
 *H              3.7872-4
 HCN             4.1157-7
 HCO             9.2976-8
 HCCO            3.315-14
 HNC             2.4117-8
 HNCO            1.2808-7
 HNO             1.3295-9
 HNO2            8.553-12
 HO2             7.981-11
 *H2             1.3307-1
 HCHO,formaldehy 4.5768-8
 HCOOH           4.7189-8
 H2O             1.4469-1
 H2O2            2.028-10
 *N              8.017-10
 NCO             1.795-10
 *NH             3.4300-9
 NH2             4.9699-8
 NH3             4.7936-6
 NH2OH           4.171-12
 *NO             3.7700-6
 NO2             7.184-12
 *N2             5.7567-1
 N2O             5.079-10
 NCN             5.653-16
 N2H2            2.784-12
 N2H4            1.801-15
 N3              6.627-15
 N3H             4.101-14
 *O              9.6613-8
 *OH             5.3570-5
 *O2             4.4828-8

  * THERMODYNAMIC PROPERTIES FITTED TO 20000.K

         THERMODYNAMIC EQUILIBRIUM COMBUSTION PROPERTIES AT ASSIGNED

                                     VOLUME

 CASE = test___________

             REACTANT                       MOLES         ENERGY      TEMP
                                                         KJ/KG-MOL      K
 FUEL        CH4                        100.0000000    -77028.260    300.000
 OXIDANT     Air                        100.0000000     -2566.042    300.000

 O/F=    9.07291  %FUEL=  9.927621  R,EQ.RATIO= 1.898632  PHI,EQ.RATIO= 1.900000

 THERMODYNAMIC PROPERTIES

 P, BAR            7.2000
 T, K             2006.69
 RHO, KG/CU M    1.0000 0
 H, KJ/KG          163.53
 U, KJ/KG         -556.47
 G, KJ/KG        -20626.5
 S, KJ/(KG)(K)    10.3604

 M, (1/n)          23.173
 (dLV/dLP)t      -1.00008
 (dLV/dLT)p        1.0019
 Cp, KJ/(KG)(K)    1.6887
 GAMMAs            1.2710
 SON VEL,M/SEC      956.6

 MOLE FRACTIONS

 *Ar             6.7485-3
 *C              5.399-16
 *CH             2.956-15
 CH2             6.134-13
 CH3             2.508-10
 CH2OH           2.028-12
 CH3O            1.985-13
 CH4             7.7905-9
 CH3OH           7.727-12
 *CN             2.101-11
 *CO             1.2027-1
 *CO2            2.3359-2
 COOH            1.1173-8
 C2H2,acetylene  1.495-12
 C2H2,vinylidene 1.429-16
 CH2CO,ketene    8.443-12
 O(CH)2O         2.582-15
 C2H3,vinyl      1.161-16
 CH3CN           8.812-15
 CH3CO,acetyl    1.638-15
 C2H4            1.074-14
 CH3CHO,ethanal  1.260-15
 CH3COOH         1.986-16
 OCCN            1.522-14
 C2N2            1.335-14
 C2O             2.885-14
 C3O2            4.420-15
 *H              2.4712-4
 HCN             5.5002-7
 HCO             7.4248-8
 HCCO            3.294-14
 HNC             2.8095-8
 HNCO            1.4107-7
 HNO             5.286-10
 HNO2            2.374-12
 HO2             1.884-11
 *H2             1.5132-1
 HCHO,formaldehy 5.4167-8
 HCOOH           4.6475-8
 H2O             1.3534-1
 H2O2            7.022-11
 *N              2.774-10
 NCO             1.066-10
 *NH             1.6441-9
 NH2             3.6842-8
 NH3             6.3658-6
 NH2OH           2.579-12
 *NO             1.4530-6
 NO2             1.478-12
 *N2             5.6268-1
 N2O             1.926-10
 NCN             3.055-16
 N2H2            1.892-12
 N2H4            1.789-15
 N3              2.386-15
 N3H             2.144-14
 *O              2.6494-8
 *OH             2.5229-5
 *O2             1.0202-8

  * THERMODYNAMIC PROPERTIES FITTED TO 20000.K

         THERMODYNAMIC EQUILIBRIUM COMBUSTION PROPERTIES AT ASSIGNED

                                     VOLUME

 CASE = test___________

             REACTANT                       MOLES         ENERGY      TEMP
                                                         KJ/KG-MOL      K
 FUEL        CH4                        100.0000000    -77028.260    300.000
 OXIDANT     Air                        100.0000000     -2566.042    300.000

 O/F=    8.61926  %FUEL= 10.395809  R,EQ.RATIO= 1.998479  PHI,EQ.RATIO= 2.000000

 THERMODYNAMIC PROPERTIES

 P, BAR            7.0505
 T, K             1931.66
 RHO, KG/CU M    1.0000 0
 H, KJ/KG          126.51
 U, KJ/KG         -578.54
 G, KJ/KG        -20022.4
 S, KJ/(KG)(K)    10.4309

 M, (1/n)          22.780
 (dLV/dLP)t      -1.00005
 (dLV/dLT)p        1.0012
 Cp, KJ/(KG)(K)    1.6938
 GAMMAs            1.2755
 SON VEL,M/SEC      948.3

 MOLE FRACTIONS

 *Ar             6.5994-3
 *C              1.743-16
 *CH             1.333-15
 CH2             4.734-13
 CH3             3.598-10
 CH2OH           1.984-12
 CH3O            1.766-13
 CH4             1.9580-8
 CH3OH           1.225-11
 *CN             1.286-11
 *CO             1.2610-1
 *CO2            2.1737-2
 COOH            7.1853-9
 C2H2,acetylene  2.807-12
 C2H2,vinylidene 1.769-16
 CH2CO,ketene    1.414-11
 O(CH)2O         2.887-15
 C2H3,vinyl      1.973-16
 CH3CN           2.492-14
 CH3CO,acetyl    2.614-15
 C2H4            3.399-14
 CH3CHO,ethanal  3.074-15
 CH3COOH         4.073-16
 OCCN            1.229-14
 C2N2            1.772-14
 C2O             1.972-14
 C3O2            5.724-15
 *H              1.5569-4
 HCN             7.1356-7
 HCO             5.7261-8
 HCCO            3.093-14
 HNC             3.1529-8
 HNCO            1.5296-7
 HNO             2.028-10
 HNO2            6.383-13
 HO2             4.265-12
 *H2             1.6904-1
 HCHO,formaldehy 6.2522-8
 HCOOH           4.5352-8
 H2O             1.2609-1
 H2O2            2.352-11
 *N              9.073-11
 NCO             6.101-11
 *NH             7.484-10
 NH2             2.6240-8
 NH3             8.2844-6
 NH2OH           1.538-12
 *NO             5.4525-7
 NO2             2.935-13
 *N2             5.5025-1
 N2O             7.119-11
 NCN             1.546-16
 N2H2            1.233-12
 N2H4            1.696-15
 N3              8.150-16
 N3H             1.073-14
 *O              6.9397-9
 *OH             1.1540-5
 *O2             2.2490-9

  * THERMODYNAMIC PROPERTIES FITTED TO 20000.K

         THERMODYNAMIC EQUILIBRIUM COMBUSTION PROPERTIES AT ASSIGNED

                                     VOLUME

 CASE = test___________

             REACTANT                       MOLES         ENERGY      TEMP
                                                         KJ/KG-MOL      K
 FUEL        CH4                        100.0000000    -77028.260    300.000
 OXIDANT     Air                        100.0000000     -2566.042    300.000

 O/F=    8.20882  %FUEL= 10.859155  R,EQ.RATIO= 2.098327  PHI,EQ.RATIO= 2.100000

 THERMODYNAMIC PROPERTIES

 P, BAR            6.8969
 T, K             1858.31
 RHO, KG/CU M    1.0000 0
 H, KJ/KG          89.314
 U, KJ/KG         -600.38
 G, KJ/KG        -19418.4
 S, KJ/(KG)(K)    10.4975

 M, (1/n)          22.403
 (dLV/dLP)t      -1.00004
 (dLV/dLT)p        1.0008
 Cp, KJ/(KG)(K)    1.7004
 GAMMAs            1.2797
 SON VEL,M/SEC      939.5

 MOLE FRACTIONS

 *Ar             6.4567-3
 *CH             5.532-16
 CH2             3.430-13
 CH3             4.967-10
 CH2OH           1.866-12
 CH3O            1.506-13
 CH4             4.8478-8
 CH3OH           1.903-11
 *CN             7.445-12
 *CO             1.3145-1
 *CO2            2.0410-2
 COOH            4.5219-9
 C2H2,acetylene  5.060-12
 C2H2,vinylidene 2.052-16
 CH2CO,ketene    2.306-11
 O(CH)2O         3.139-15
 C2H3,vinyl      3.168-16
 CH3CN           6.869-14
 CH3CO,acetyl    4.016-15
 C2H4            1.043-13
 CH3CHO,ethanal  7.319-15
 CH3COOH         8.246-16
 C2H6            1.308-16
 OCCN            9.473-15
 C2N2            2.267-14
 C2O             1.274-14
 C3O2            7.209-15
 *H              9.4687-5
 HCN             9.0516-7
 HCO             4.2741-8
 HCCO            2.765-14
 HNC             3.4314-8
 HNCO            1.6388-7
 HNO             7.466-11
 HNO2            1.648-13
 HO2             9.166-13
 *H2             1.8622-1
 HCHO,formaldehy 7.0766-8
 HCOOH           4.3944-8
 H2O             1.1701-1
 H2O2            7.572-12
 *N              2.791-11
 NCO             3.363-11
 *NH             3.231-10
 NH2             1.7992-8
 NH3             1.0629-5
 NH2OH           8.851-13
 *NO             1.9788-7
 NO2             5.554-14
 *N2             5.3835-1
 N2O             2.547-11
 N2H2            7.726-13
 N2H4            1.546-15
 N3              2.632-16
 N3H             5.131-15
 *O              1.7222-9
 *OH             5.1041-6
 *O2             4.747-10

  * THERMODYNAMIC PROPERTIES FITTED TO 20000.K

         THERMODYNAMIC EQUILIBRIUM COMBUSTION PROPERTIES AT ASSIGNED

                                     VOLUME

 CASE = test___________

             REACTANT                       MOLES         ENERGY      TEMP
                                                         KJ/KG-MOL      K
 FUEL        CH4                        100.0000000    -77028.260    300.000
 OXIDANT     Air                        100.0000000     -2566.042    300.000

 O/F=    7.83569  %FUEL= 11.317733  R,EQ.RATIO= 2.198175  PHI,EQ.RATIO= 2.200000

 THERMODYNAMIC PROPERTIES

 P, BAR            6.7394
 T, K             1786.60
 RHO, KG/CU M    1.0000 0
 H, KJ/KG          51.948
 U, KJ/KG         -621.99
 G, KJ/KG        -18815.2
 S, KJ/(KG)(K)    10.5604

 M, (1/n)          22.042
 (dLV/dLP)t      -1.00003
 (dLV/dLT)p        1.0005
 Cp, KJ/(KG)(K)    1.7080
 GAMMAs            1.2838
 SON VEL,M/SEC      930.2

 MOLE FRACTIONS

 *Ar             6.3200-3
 *CH             2.116-16
 CH2             2.343-13
 CH3             6.655-10
 CH2OH           1.696-12
 CH3O            1.234-13
 CH4             1.1965-7
 CH3OH           2.914-11
 *CN             4.084-12
 *CO             1.3640-1
 *CO2            1.9313-2
 COOH            2.7799-9
 C2H2,acetylene  8.859-12
 C2H2,vinylidene 2.252-16
 CH2CO,ketene    3.695-11
 O(CH)2O         3.336-15
 C2H3,vinyl      4.866-16
 CH3CN           1.871-13
 CH3CO,acetyl    5.996-15
 C2H4            3.155-13
 CH3CHO,ethanal  1.722-14
 CH3COOH         1.666-15
 C2H6            6.075-16
 OCCN            6.991-15
 C2N2            2.816-14
 C2O             7.797-15
 C3O2            8.887-15
 *H              5.5540-5
 HCN             1.1288-6
 HCO             3.0907-8
 HCCO            2.365-14
 HNC             3.6388-8
 HNCO            1.7394-7
 HNO             2.625-11
 HNO2            4.051-14
 HO2             1.852-13
 *H2             2.0282-1
 HCHO,formaldehy 7.8854-8
 HCOOH           4.2338-8
 H2O             1.0813-1
 H2O2            2.326-12
 *N              8.038-12
 NCO             1.783-11
 *NH             1.319-10
 NH2             1.1885-8
 NH3             1.3507-5
 NH2OH           4.911-13
 *NO             6.9009-8
 NO2             9.905-15
 *N2             5.2694-1
 N2O             8.768-12
 N2H2            4.654-13
 N2H4            1.360-15
 N3H             2.343-15
 *O              4.017-10
 *OH             2.1733-6
 *O2             9.489-11

  * THERMODYNAMIC PROPERTIES FITTED TO 20000.K

         THERMODYNAMIC EQUILIBRIUM COMBUSTION PROPERTIES AT ASSIGNED

                                     VOLUME

 CASE = test___________

             REACTANT                       MOLES         ENERGY      TEMP
                                                         KJ/KG-MOL      K
 FUEL        CH4                        100.0000000    -77028.260    300.000
 OXIDANT     Air                        100.0000000     -2566.042    300.000

 O/F=    7.49501  %FUEL= 11.771617  R,EQ.RATIO= 2.298023  PHI,EQ.RATIO= 2.300000

 THERMODYNAMIC PROPERTIES

 P, BAR            6.5781
 T, K             1716.46
 RHO, KG/CU M    1.0000 0
 H, KJ/KG          14.433
 U, KJ/KG         -643.38
 G, KJ/KG        -18213.5
 S, KJ/(KG)(K)    10.6195

 M, (1/n)          21.695
 (dLV/dLP)t      -1.00003
 (dLV/dLT)p        1.0003
 Cp, KJ/(KG)(K)    1.7161
 GAMMAs            1.2877
 SON VEL,M/SEC      920.4

 MOLE FRACTIONS

 *Ar             6.1888-3
 CH2             1.512-13
 CH3             8.705-10
 CH2OH           1.493-12
 CH3O            9.754-14
 CH4             2.9731-7
 CH3OH           4.431-11
 *CN             2.120-12
 *CO             1.4101-1
 *CO2            1.8398-2
 COOH            1.6658-9
 C2H2,acetylene  1.520-11
 C2H2,vinylidene 2.353-16
 CH2CO,ketene    5.858-11
 O(CH)2O         3.478-15
 C2H3,vinyl      7.215-16
 CH3CN           5.099-13
 CH3CO,acetyl    8.766-15
 C2H4            9.524-13
 CH3CHO,ethanal  4.046-14
 CH3COOH         3.386-15
 C2H6            2.851-15
 OCCN            4.949-15
 C2N2            3.414-14
 C2O             4.521-15
 C3O2            1.078-14
 *H              3.1368-5
 HCN             1.3897-6
 HCO             2.1651-8
 HCCO            1.942-14
 HNC             3.7728-8
 HNCO            1.8326-7
 HNO             8.765-12
 HNO2            9.395-15
 HO2             3.484-14
 *H2             2.1887-1
 HCHO,formaldehy 8.6759-8
 HCOOH           4.0598-8
 H2O             9.9480-2
 H2O2            6.774-13
 *N              2.154-12
 NCO             9.074-12
 *NH             5.079-11
 NH2             7.5617-9
 NH3             1.7064-5
 NH2OH           2.624-13
 *NO             2.2976-8
 NO2             1.646-15
 *N2             5.1601-1
 N2O             2.885-12
 N2H2            2.694-13
 N2H4            1.159-15
 N3H             1.018-15
 *O              8.730-11
 *OH             8.8658-7
 *O2             1.777-11

  * THERMODYNAMIC PROPERTIES FITTED TO 20000.K

         THERMODYNAMIC EQUILIBRIUM COMBUSTION PROPERTIES AT ASSIGNED

                                     VOLUME

 CASE = test___________

             REACTANT                       MOLES         ENERGY      TEMP
                                                         KJ/KG-MOL      K
 FUEL        CH4                        100.0000000    -77028.260    300.000
 OXIDANT     Air                        100.0000000     -2566.042    300.000

 O/F=    7.18272  %FUEL= 12.220879  R,EQ.RATIO= 2.397871  PHI,EQ.RATIO= 2.400000

 THERMODYNAMIC PROPERTIES

 P, BAR            6.4134
 T, K             1647.84
 RHO, KG/CU M    1.0000 0
 H, KJ/KG         -23.216
 U, KJ/KG         -664.55
 G, KJ/KG        -17613.7
 S, KJ/(KG)(K)    10.6749

 M, (1/n)          21.363
 (dLV/dLP)t      -1.00003
 (dLV/dLT)p        1.0003
 Cp, KJ/(KG)(K)    1.7245
 GAMMAs            1.2916
 SON VEL,M/SEC      910.1

 MOLE FRACTIONS

 *Ar             6.0630-3
 CH2             9.227-14
 CH3             1.1172-9
 CH2OH           1.275-12
 CH3O            7.442-14
 CH4             7.5041-7
 CH3OH           6.721-11
 *CN             1.040-12
 *CO             1.4531-1
 *CO2            1.7630-2
 COOH            9.704-10
 C2H2,acetylene  2.574-11
 C2H2,vinylidene 2.353-16
 CH2CO,ketene    9.243-11
 O(CH)2O         3.568-15
 C2H3,vinyl      1.040-15
 CH3CN           1.405-12
 CH3CO,acetyl    1.263-14
 C2H4            2.904-12
 CH3CHO,ethanal  9.583-14
 CH3COOH         6.980-15
 C2H5            1.929-16
 C2H6            1.372-14
 OCCN            3.362-15
 C2N2            4.061-14
 C2O             2.483-15
 C3O2            1.291-14
 *H              1.7018-5
 HCN             1.6950-6
 HCO             1.4683-8
 HCCO            1.533-14
 HNC             3.8345-8
 HNCO            1.9194-7
 HNO             2.762-12
 HNO2            2.037-15
 HO2             6.040-15
 *H2             2.3437-1
 HCHO,formaldehy 9.4463-8
 HCOOH           3.8771-8
 H2O             9.1072-2
 H2O2            1.855-13
 *N              5.337-13
 NCO             4.419-12
 *NH             1.836-11
 NH2             4.6283-9
 NH3             2.1494-5
 NH2OH           1.346-13
 *NO             7.2541-9
 NO2             2.521-16
 *N2             5.0551-1
 N2O             9.014-13
 N2H2            1.497-13
 N2H4            9.579-16
 N3H             4.200-16
 *O              1.752-11
 *OH             3.4469-7
 *O2             3.084-12

  * THERMODYNAMIC PROPERTIES FITTED TO 20000.K

         THERMODYNAMIC EQUILIBRIUM COMBUSTION PROPERTIES AT ASSIGNED

                                     VOLUME

 CASE = test___________

             REACTANT                       MOLES         ENERGY      TEMP
                                                         KJ/KG-MOL      K
 FUEL        CH4                        100.0000000    -77028.260    300.000
 OXIDANT     Air                        100.0000000     -2566.042    300.000

 O/F=    6.89541  %FUEL= 12.665589  R,EQ.RATIO= 2.497719  PHI,EQ.RATIO= 2.500000

 THERMODYNAMIC PROPERTIES

 P, BAR            6.2452
 T, K             1580.67
 RHO, KG/CU M    1.0000 0
 H, KJ/KG         -60.988
 U, KJ/KG         -685.51
 G, KJ/KG        -17016.3
 S, KJ/(KG)(K)    10.7266

 M, (1/n)          21.044
 (dLV/dLP)t      -1.00004
 (dLV/dLT)p        1.0003
 Cp, KJ/(KG)(K)    1.7331
 GAMMAs            1.2954
 SON VEL,M/SEC      899.5

 MOLE FRACTIONS

 *Ar             5.9422-3
 CH2             5.319-14
 CH3             1.4124-9
 CH2OH           1.057-12
 CH3O            5.483-14
 CH4             1.9398-6
 CH3OH           1.022-10
 *CN             4.812-13
 *CO             1.4936-1
 *CO2            1.6982-2
 COOH            5.480-10
 C2H2,acetylene  4.332-11
 C2H2,vinylidene 2.260-16
 CH2CO,ketene    1.459-10
 O(CH)2O         3.607-15
 C2H3,vinyl      1.466-15
 CH3CN           3.953-12
 CH3CO,acetyl    1.802-14
 C2H4            9.037-12
 CH3CHO,ethanal  2.308-13
 CH3COOH         1.469-14
 C2H5            5.023-16
 C2H6            6.875-14
 OCCN            2.192-15
 C2N2            4.756-14
 C2O             1.290-15
 C3O2            1.532-14
 *H              8.8430-6
 HCN             2.0540-6
 HCO             9.6259-9
 HCCO            1.165-14
 HNC             3.8274-8
 HNCO            2.0010-7
 HNO             8.157-13
 HNO2            4.091-16
 HO2             9.539-16
 *H2             2.4933-1
 HCHO,formaldehy 1.0196-7
 HCOOH           3.6887-8
 H2O             8.2911-2
 H2O2            4.742-14
 *N              1.213-13
 NCO             2.053-12
 *NH             6.196-12
 NH2             2.7203-9
 NH3             2.7068-5
 NH2OH           6.611-14
 *NO             2.1558-9
 *N2             4.9544-1
 N2O             2.655-13
 N2H2            7.966-14
 N2H4            7.688-16
 N3H             1.637-16
 *O              3.216-12
 *OH             1.2697-7
 *O2             4.903-13

  * THERMODYNAMIC PROPERTIES FITTED TO 20000.K

         THERMODYNAMIC EQUILIBRIUM COMBUSTION PROPERTIES AT ASSIGNED

                                     VOLUME

 CASE = test___________

             REACTANT                       MOLES         ENERGY      TEMP
                                                         KJ/KG-MOL      K
 FUEL        CH4                        100.0000000    -77028.260    300.000
 OXIDANT     Air                        100.0000000     -2566.042    300.000

 O/F=    6.63020  %FUEL= 13.105815  R,EQ.RATIO= 2.597567  PHI,EQ.RATIO= 2.600000

 THERMODYNAMIC PROPERTIES

 P, BAR            6.0739
 T, K             1514.91
 RHO, KG/CU M    1.0000 0
 H, KJ/KG         -98.874
 U, KJ/KG         -706.26
 G, KJ/KG        -16421.5
 S, KJ/(KG)(K)    10.7747

 M, (1/n)          20.738
 (dLV/dLP)t      -1.00006
 (dLV/dLT)p        1.0004
 Cp, KJ/(KG)(K)    1.7419
 GAMMAs            1.2992
 SON VEL,M/SEC      888.3

 MOLE FRACTIONS

 *Ar             5.8262-3
 CH2             2.891-14
 CH3             1.7648-9
 CH2OH           8.510-13
 CH3O            3.900-14
 CH4             5.1771-6
 CH3OH           1.564-10
 *CN             2.090-13
 *CO             1.5317-1
 *CO2            1.6432-2
 COOH            2.988-10
 C2H2,acetylene  7.287-11
 C2H2,vinylidene 2.089-16
 CH2CO,ketene    2.315-10
 O(CH)2O         3.602-15
 C2H3,vinyl      2.033-15
 CH3CN           1.146-11
 CH3CO,acetyl    2.560-14
 C2H4            2.901-11
 CH3CHO,ethanal  5.695-13
 CH3COOH         3.179-14
 C2H5            1.327-15
 C2H6            3.634-13
 OCCN            1.369-15
 C2N2            5.504-14
 C2O             6.319-16
 C3H4,propyne    1.070-16
 C3O2            1.807-14
 *H              4.3855-6
 HCN             2.4796-6
 HCO             6.0887-9
 HCCO            8.521-15
 HNC             3.7575-8
 HNCO            2.0784-7
 HNO             2.240-13
 HO2             1.356-16
 *H2             2.6377-1
 HCHO,formaldehy 1.0925-7
 HCOOH           3.4970-8
 H2O             7.4997-2
 H2O2            1.120-14
 *N              2.506-14
 NCO             9.057-13
 *NH             1.941-12
 NH2             1.5314-9
 NH3             3.4157-5
 NH2OH           3.096-14
 *NO             5.983-10
 *N2             4.8576-1
 N2O             7.317-14
 N2H2            4.047-14
 N2H4            5.992-16
 *O              5.339-13
 *OH             4.4028-8
 *O2             7.050-14

  * THERMODYNAMIC PROPERTIES FITTED TO 20000.K

         THERMODYNAMIC EQUILIBRIUM COMBUSTION PROPERTIES AT ASSIGNED

                                     VOLUME

 CASE = test___________

             REACTANT                       MOLES         ENERGY      TEMP
                                                         KJ/KG-MOL      K
 FUEL        CH4                        100.0000000    -77028.260    300.000
 OXIDANT     Air                        100.0000000     -2566.042    300.000

 O/F=    6.38464  %FUEL= 13.541626  R,EQ.RATIO= 2.697415  PHI,EQ.RATIO= 2.700000

 THERMODYNAMIC PROPERTIES

 P, BAR            5.8994
 T, K             1450.50
 RHO, KG/CU M    1.0000 0
 H, KJ/KG         -136.86
 U, KJ/KG         -726.80
 G, KJ/KG        -15829.8
 S, KJ/(KG)(K)    10.8190

 M, (1/n)          20.443
 (dLV/dLP)t      -1.00010
 (dLV/dLT)p        1.0008
 Cp, KJ/(KG)(K)    1.7516
 GAMMAs            1.3029
 SON VEL,M/SEC      876.7

 MOLE FRACTIONS

 *Ar             5.7146-3
 CH2             1.479-14
 CH3             2.1858-9
 CH2OH           6.652-13
 CH3O            2.675-14
 CH4             1.4377-5
 CH3OH           2.417-10
 *CN             8.489-14
 *CO             1.5678-1
 *CO2            1.5963-2
 COOH            1.568-10
 C2H2,acetylene  1.232-10
 C2H2,vinylidene 1.862-16
 CH2CO,ketene    3.711-10
 O(CH)2O         3.555-15
 C2H3,vinyl      2.783-15
 CH3CN           3.458-11
 CH3CO,acetyl    3.633-14
 C2H4            9.699-11
 CH3CHO,ethanal  1.451-12
 CH3COOH         7.116-14
 C2H5            3.592-15
 C2H6            2.054-12
 C2H5OH          3.247-16
 OCCN            8.186-16
 C2N2            6.314-14
 C2O             2.912-16
 C3H4,allene     1.441-16
 C3H4,propyne    4.172-16
 C3H6,propylene  1.994-16
 C3O2            2.124-14
 *H              2.0674-6
 HCN             2.9889-6
 HCO             3.7070-9
 HCCO            5.997-15
 HNC             3.6323-8
 HNCO            2.1526-7
 HNO             5.675-14
 *H2             2.7769-1
 HCHO,formaldehy 1.1633-7
 HCOOH           3.3031-8
 H2O             6.7335-2
 H2O2            2.424-15
 *N              4.662-15
 NCO             3.778-13
 *NH             5.605-13
 NH2             8.232-10
 NH3             4.3281-5
 NH2OH           1.377-14
 *NO             1.538-10
 *N2             4.7645-1
 N2O             1.870-14
 N2H2            1.957-14
 N2H4            4.535-16
 *O              7.923-14
 *OH             1.4271-8
 *O2             9.049-15

  * THERMODYNAMIC PROPERTIES FITTED TO 20000.K

         THERMODYNAMIC EQUILIBRIUM COMBUSTION PROPERTIES AT ASSIGNED

                                     VOLUME

 CASE = test___________

             REACTANT                       MOLES         ENERGY      TEMP
                                                         KJ/KG-MOL      K
 FUEL        CH4                        100.0000000    -77028.260    300.000
 OXIDANT     Air                        100.0000000     -2566.042    300.000

 O/F=    6.15662  %FUEL= 13.973086  R,EQ.RATIO= 2.797263  PHI,EQ.RATIO= 2.800000

 THERMODYNAMIC PROPERTIES

 P, BAR            5.7222
 T, K             1387.48
 RHO, KG/CU M    1.0000 0
 H, KJ/KG         -174.92
 U, KJ/KG         -747.13
 G, KJ/KG        -15242.3
 S, KJ/(KG)(K)    10.8596

 M, (1/n)          20.161
 (dLV/dLP)t      -1.00023
 (dLV/dLT)p        1.0020
 Cp, KJ/(KG)(K)    1.7644
 GAMMAs            1.3062
 SON VEL,M/SEC      864.5

 MOLE FRACTIONS

 *Ar             5.6075-3
 CH2             7.100-15
 CH3             2.6902-9
 CH2OH           5.044-13
 CH3O            1.767-14
 CH4             4.1833-5
 CH3OH           3.786-10
 *CN             3.212-14
 *CO             1.6019-1
 *CO2            1.5558-2
 COOH            7.886-11
 C2H2,acetylene  2.104-10
 C2H2,vinylidene 1.603-16
 CH2CO,ketene    6.030-10
 O(CH)2O         3.472-15
 C2H3,vinyl      3.779-15
 CH3CN           1.095-10
 CH3CO,acetyl    5.172-14
 C2H4            3.409-10
 CH3CHO,ethanal  3.847-12
 CH3COOH         1.658-13
 C2H5            1.004-14
 C2H6            1.257-11
 C2H5OH          1.151-15
 OCCN            4.678-16
 C2N2            7.200-14
 C2O             1.258-16
 C3H4,allene     5.770-16
 C3H4,propyne    1.714-15
 C3H6,propylene  1.595-15
 C3O2            2.495-14
 *H              9.2287-7
 HCN             3.6056-6
 HCO             2.1672-9
 HCCO            4.058-15
 HNC             3.4609-8
 HNCO            2.2247-7
 HNO             1.315-14
 *H2             2.9109-1
 HCHO,formaldehy 1.2320-7
 HCOOH           3.1080-8
 H2O             5.9936-2
 H2O2            4.758-16
 *N              7.744-16
 NCO             1.483-13
 *NH             1.482-13
 NH2             4.213-10
 NH3             5.5165-5
 NH2OH           5.787-15
 *NO             3.630-11
 *N2             4.6752-1
 N2O             4.401-15
 N2H2            8.972-15
 N2H4            3.330-16
 *O              1.040-14
 *OH             4.2948-9
 *O2             1.024-15

  * THERMODYNAMIC PROPERTIES FITTED TO 20000.K

         THERMODYNAMIC EQUILIBRIUM COMBUSTION PROPERTIES AT ASSIGNED

                                     VOLUME

 CASE = test___________

             REACTANT                       MOLES         ENERGY      TEMP
                                                         KJ/KG-MOL      K
 FUEL        CH4                        100.0000000    -77028.260    300.000
 OXIDANT     Air                        100.0000000     -2566.042    300.000

 O/F=    5.94432  %FUEL= 14.400262  R,EQ.RATIO= 2.897111  PHI,EQ.RATIO= 2.900000

 THERMODYNAMIC PROPERTIES

 P, BAR            5.5432
 T, K             1326.09
 RHO, KG/CU M    1.0000 0
 H, KJ/KG         -212.95
 U, KJ/KG         -767.27
 G, KJ/KG        -14662.4
 S, KJ/(KG)(K)    10.8963

 M, (1/n)          19.891
 (dLV/dLP)t      -1.00058
 (dLV/dLT)p        1.0058
 Cp, KJ/(KG)(K)    1.7891
 GAMMAs            1.3085
 SON VEL,M/SEC      851.7

 MOLE FRACTIONS

 *Ar             5.5050-3
 CH2             3.199-15
 CH3             3.2946-9
 CH2OH           3.711-13
 CH3O            1.124-14
 CH4             1.2789-4
 CH3OH           6.015-10
 *CN             1.132-14
 *CO             1.6340-1
 *CO2            1.5203-2
 COOH            3.796-11
 C2H2,acetylene  3.641-10
 C2H2,vinylidene 1.335-16
 CH2CO,ketene    9.957-10
 O(CH)2O         3.358-15
 C2H3,vinyl      5.101-15
 CH3CN           3.651-10
 CH3CO,acetyl    7.399-14
 C2H4            1.2645-9
 CH3CHO,ethanal  1.063-11
 CH3COOH         4.031-13
 C2H5            2.906-14
 C2H6            8.368-11
 C2H5OH          4.316-15
 OCCN            2.556-16
 C2N2            8.183-14
 C3H3,2-propynl  1.294-16
 C3H4,allene     2.442-15
 C3H4,propyne    7.451-15
 C3H6,propylene  1.403-14
 C3H8            1.707-16
 C3O2            2.932-14
 *H              3.8974-7
 HCN             4.3586-6
 HCO             1.2160-9
 HCCO            2.643-15
 HNC             3.2536-8
 HNCO            2.2950-7
 HNO             2.782-15
 *H2             3.0389-1
 HCHO,formaldehy 1.2982-7
 HCOOH           2.9124-8
 H2O             5.2841-2
 *N              1.145-16
 NCO             5.478-14
 *NH             3.583-14
 NH2             2.051-10
 NH3             7.0764-5
 NH2OH           2.296-15
 *NO             7.849-12
 *N2             4.5896-1
 N2O             9.509-16
 N2H2            3.898-15
 N2H4            2.372-16
 *O              1.202-15
 *OH             1.1972-9
 *O2             1.016-16

  * THERMODYNAMIC PROPERTIES FITTED TO 20000.K

         THERMODYNAMIC EQUILIBRIUM COMBUSTION PROPERTIES AT ASSIGNED

                                     VOLUME

 CASE = test___________

             REACTANT                       MOLES         ENERGY      TEMP
                                                         KJ/KG-MOL      K
 FUEL        CH4                        100.0000000    -77028.260    300.000
 OXIDANT     Air                        100.0000000     -2566.042    300.000

 O/F=    5.74617  %FUEL= 14.823217  R,EQ.RATIO= 2.996959  PHI,EQ.RATIO= 3.000000

 THERMODYNAMIC PROPERTIES

 P, BAR            5.3658
 T, K             1267.37
 RHO, KG/CU M    1.0000 0
 H, KJ/KG         -250.62
 U, KJ/KG         -787.20
 G, KJ/KG        -14101.8
 S, KJ/(KG)(K)    10.9291

 M, (1/n)          19.638
 (dLV/dLP)t      -1.00168
 (dLV/dLT)p        1.0182
 Cp, KJ/(KG)(K)    1.8563
 GAMMAs            1.3068
 SON VEL,M/SEC      837.4

 MOLE FRACTIONS

 *Ar             5.4083-3
 CH2             1.369-15
 CH3             4.0070-9
 CH2OH           2.660-13
 CH3O            6.937-15
 CH4             4.0475-4
 CH3OH           9.634-10
 *CN             3.771-15
 *CO             1.6634-1
 *CO2            1.4890-2
 COOH            1.765-11
 C2H2,acetylene  6.343-10
 C2H2,vinylidene 1.080-16
 CH2CO,ketene    1.6605-9
 O(CH)2O         3.219-15
 C2H3,vinyl      6.828-15
 CH3CN           1.2631-9
 CH3CO,acetyl    1.060-13
 C2H4            4.8685-9
 CH3CHO,ethanal  3.025-11
 CH3COOH         1.010-12
 C2H5            8.608-14
 C2H6            5.914-10
 C2H5OH          1.681-14
 OCCN            1.347-16
 C2N2            9.267-14
 C3H3,2-propynl  3.068-16
 C3H4,allene     1.073-14
 C3H4,propyne    3.369-14
 C3H5,allyl      3.210-16
 C3H6,propylene  1.320-13
 C3H6,cyclo-     1.400-16
 C3H6O,acetone   6.220-16
 C3H6O,propanal  1.125-16
 C3H8            2.788-15
 C3O2            3.444-14
 *H              1.5762-7
 HCN             5.2699-6
 HCO             6.601-10
 HCCO            1.668-15
 HNC             3.0230-8
 HNCO            2.3625-7
 HNO             5.483-16
 *H2             3.1578-1
 HCHO,formaldehy 1.3600-7
 HCOOH           2.7194-8
 H2O             4.6191-2
 NCO             1.929-14
 *NH             8.079-15
 NH2             9.593-11
 NH3             9.1050-5
 NH2OH           8.701-16
 *NO             1.587-12
 *N2             4.5089-1
 N2O             1.926-16
 N2H2            1.624-15
 N2H4            1.649-16
 *O              1.261-16
 *OH             3.144-10

  * THERMODYNAMIC PROPERTIES FITTED TO 20000.K