 *******************************************************************************

         NASA-GLENN CHEMICAL EQUILIBRIUM PROGRAM CEA2, FEBRUARY 5, 2004
                   BY  BONNIE MCBRIDE AND SANFORD GORDON
      REFS: NASA RP-1311, PART I, 1994 AND NASA RP-1311, PART II, 1996

 *******************************************************************************



  
 ### CEA analysis performed on Mon 11-Jul-2022 13:44:41
  
 # Problem Type: "Combustion at Assigned Volume"
  
 prob case=test___________6313 uv
  
 # Density (1 value):
 rho,kg/m**3= 1.0300
  
 # Equivalence based on Fuel/Oxid. wt ratio (Eq 9.19*) (1 value):
 phi= 3.7
  
 # You selected the following fuels and oxidizers:
 reac
 fuel CH4              mole=100.0000  t,k= 300.000
 oxid Air              mole=100.0000  t,k= 300.000
  
 # You selected these options for output:
 # short version of output
 output short
 # Proportions of any products will be expressed as Mole Fractions.
 # Heat will be expressed as siunits
 output siunits
 # Trace variable:
 output trace=1e-16
  
 # Input prepared by this script:/var/www/sites/cearun.grc.nasa.gov/cgi-bin/CEARU
 N/prepareInputFile.cgi
  
 ### IMPORTANT:  The following line is the end of your CEA input file!
 end




         THERMODYNAMIC EQUILIBRIUM COMBUSTION PROPERTIES AT ASSIGNED

                                     VOLUME

 CASE = test___________

             REACTANT                       MOLES         ENERGY      TEMP
                                                         KJ/KG-MOL      K
 FUEL        CH4                        100.0000000    -77028.260    300.000
 OXIDANT     Air                        100.0000000     -2566.042    300.000

 O/F=    4.65906  %FUEL= 17.670779  R,EQ.RATIO= 3.695895  PHI,EQ.RATIO= 3.700000

 THERMODYNAMIC PROPERTIES

 P, BAR            4.9070
 T, K             1085.59
 RHO, KG/CU M    1.0300 0
 H, KJ/KG         -445.00
 U, KJ/KG         -921.40
 G, KJ/KG        -12462.5
 S, KJ/(KG)(K)    11.0700

 M, (1/n)          18.946
 MW, MOL WT        18.855
 (dLV/dLP)t      -1.04598
 (dLV/dLT)p        1.6371
 Cp, KJ/(KG)(K)    5.9298
 GAMMAs            1.1798
 SON VEL,M/SEC      749.7

 MOLE FRACTIONS

 *Ar             5.0189-3
 CH3             6.2628-9
 CH2OH           6.624-14
 CH3O            9.935-16
 CH4             2.3242-2
 CH3OH           4.9278-9
 *CO             1.6467-1
 *CO2            1.5102-2
 COOH            1.052-12
 C2H2,acetylene  3.2635-9
 CH2CO,ketene    8.5084-9
 O(CH)2O         2.418-15
 C2H3,vinyl      1.266-14
 CH3CN           8.6992-8
 CH3CO,acetyl    3.016-13
 C2H4            4.8327-7
 C2H4O,ethylen-o 2.596-16
 CH3CHO,ethanal  1.1286-9
 CH3COOH         2.794-11
 C2H5            3.110-12
 C2H6            5.6386-7
 C2H5OH          1.988-12
 CH3OCH3         1.274-15
 C2N2            1.011-13
 C3H3,2-propynl  4.098-15
 C3H4,allene     1.460-12
 C3H4,propyne    5.086-12
 C3H5,allyl      6.803-14
 C3H6,propylene  3.076-10
 C3H6,cyclo-     1.913-13
 C3H6O,acetone   7.446-13
 C3H6O,propanal  7.570-14
 C3H7,n-propyl   2.449-16
 C3H7,i-propyl   3.630-16
 C3H8            5.068-11
 C3H8O,1propanol 1.729-16
 C3H8O,2propanol 3.120-16
 C3O2            4.760-14
 C4H6,butadiene  6.280-14
 C4H6,1butyne    4.811-16
 C4H6,2butyne    1.248-15
 C4H8,1-butene   2.601-14
 C4H8,cis2-buten 1.782-14
 C4H8,tr2-butene 2.037-14
 C4H8,isobutene  2.941-14
 C4H10,n-butane  4.488-15
 C4H10,isobutane 2.198-15
 C5H6,1,3cyclo-  6.159-16
 C6H6            4.308-14
 *H              4.9068-9
 HCN             8.5455-6
 HCO             5.962-11
 HCCO            2.208-16
 HNC             1.8105-8
 HNCO            2.4515-7
 *H2             3.3856-1
 HCHO,formaldehy 1.4506-7
 HCOOH           2.2515-8
 H2O             2.9989-2
 NCO             3.550-16
 NH2             5.092-12
 NH3             2.1723-4
 *NO             4.331-15
 *N2             4.1836-1
 *OH             2.219-12
 C(gr)           4.8273-3

  * THERMODYNAMIC PROPERTIES FITTED TO 20000.K


