*******************************************************************************

         NASA-GLENN CHEMICAL EQUILIBRIUM PROGRAM CEA2, FEBRUARY 5, 2004
                   BY  BONNIE MCBRIDE AND SANFORD GORDON
      REFS: NASA RP-1311, PART I, 1994 AND NASA RP-1311, PART II, 1996

 *******************************************************************************



  
 ### CEA analysis performed on Mon 11-Jul-2022 13:27:28
  
 # Problem Type: "Combustion at Assigned Volume"
  
 prob case=test___________5469 uv
  
 # Density (1 value):
 rho,kg/m**3= 1.1408
  
 # Equivalence based on Fuel/Oxid. wt ratio (Eq 9.19*) (1 value):
 phi= 0.7
  
 # You selected the following fuels and oxidizers:
 reac
 fuel CH4              mole=100.0000  t,k= 300.000
 oxid Air              mole=100.0000  t,k= 300.000
  
 # You selected these options for output:
 # short version of output
 output short
 # Proportions of any products will be expressed as Mole Fractions.
 # Heat will be expressed as siunits
 output siunits
 # Trace variable:
 output trace=1e-16
  
 # Input prepared by this script:/var/www/sites/cearun.grc.nasa.gov/cgi-bin/CEARU
 N/prepareInputFile.cgi
  
 ### IMPORTANT:  The following line is the end of your CEA input file!
 end




         THERMODYNAMIC EQUILIBRIUM COMBUSTION PROPERTIES AT ASSIGNED

                                     VOLUME

 CASE = test___________

             REACTANT                       MOLES         ENERGY      TEMP
                                                         KJ/KG-MOL      K
 FUEL        CH4                        100.0000000    -77028.260    300.000
 OXIDANT     Air                        100.0000000     -2566.042    300.000

 O/F=   24.62646  %FUEL=  3.902217  R,EQ.RATIO= 0.700456  PHI,EQ.RATIO= 0.700000

 THERMODYNAMIC PROPERTIES

 P, BAR            7.4870
 T, K             2213.62
 RHO, KG/CU M    1.1408 0
 H, KJ/KG          383.79
 U, KJ/KG         -272.50
 G, KJ/KG        -19615.2
 S, KJ/(KG)(K)     9.0345

 M, (1/n)          28.044
 (dLV/dLP)t      -1.00051
 (dLV/dLT)p        1.0156
 Cp, KJ/(KG)(K)    1.6238
 GAMMAs            1.2312
 SON VEL,M/SEC      898.9

 MOLE FRACTIONS

 *Ar             8.7134-3
 *CN             1.312-15
 *CO             6.9811-4
 *CO2            6.7814-2
 COOH            3.7220-9
 *H              3.5923-5
 HCN             2.658-13
 HCO             4.259-11
 HNC             1.923-14
 HNCO            3.924-11
 HNO             1.0442-7
 HNO2            4.1108-7
 HNO3            1.244-10
 HO2             4.4862-6
 *H2             2.6046-4
 HCHO,formaldehy 5.565-13
 HCOOH           2.688-10
 H2O             1.3467-1
 H2O2            3.0702-7
 *N              4.5487-9
 NCO             2.929-12
 *NH             5.721-10
 NH2             2.059-10
 NH3             3.934-10
 NH2OH           3.922-13
 *NO             6.3789-3
 NO2             1.1254-5
 NO3             2.951-11
 *N2             7.2331-1
 N2O             9.6662-7
 N2H2            1.451-14
 N2O3            9.231-13
 N3              4.249-14
 N3H             7.193-15
 *O              2.5219-4
 *OH             2.9516-3
 *O2             5.4890-2
 O3              4.9539-9

  * THERMODYNAMIC PROPERTIES FITTED TO 20000.K

