*******************************************************************************

         NASA-GLENN CHEMICAL EQUILIBRIUM PROGRAM CEA2, FEBRUARY 5, 2004
                   BY  BONNIE MCBRIDE AND SANFORD GORDON
      REFS: NASA RP-1311, PART I, 1994 AND NASA RP-1311, PART II, 1996

 *******************************************************************************



  
 ### CEA analysis performed on Mon 11-Jul-2022 13:39:10
  
 # Problem Type: "Combustion at Assigned Volume"
  
 prob case=test___________5469 uv
  
 # Density (1 value):
 rho,kg/m**3= 1.0677
  
 # Equivalence based on Fuel/Oxid. wt ratio (Eq 9.19*) (1 value):
 phi= 2.5
  
 # You selected the following fuels and oxidizers:
 reac
 fuel CH4              mole=100.0000  t,k= 300.000
 oxid Air              mole=100.0000  t,k= 300.000
  
 # You selected these options for output:
 # short version of output
 output short
 # Proportions of any products will be expressed as Mole Fractions.
 # Heat will be expressed as siunits
 output siunits
 # Trace variable:
 output trace=1e-16
  
 # Input prepared by this script:/var/www/sites/cearun.grc.nasa.gov/cgi-bin/CEARU
 N/prepareInputFile.cgi
  
 ### IMPORTANT:  The following line is the end of your CEA input file!
 end




         THERMODYNAMIC EQUILIBRIUM COMBUSTION PROPERTIES AT ASSIGNED

                                     VOLUME

 CASE = test___________

             REACTANT                       MOLES         ENERGY      TEMP
                                                         KJ/KG-MOL      K
 FUEL        CH4                        100.0000000    -77028.260    300.000
 OXIDANT     Air                        100.0000000     -2566.042    300.000

 O/F=    6.89541  %FUEL= 12.665589  R,EQ.RATIO= 2.497719  PHI,EQ.RATIO= 2.500000

 THERMODYNAMIC PROPERTIES

 P, BAR            6.6681
 T, K             1580.68
 RHO, KG/CU M    1.0677 0
 H, KJ/KG         -60.987
 U, KJ/KG         -685.51
 G, KJ/KG        -16975.5
 S, KJ/(KG)(K)    10.7008

 M, (1/n)          21.044
 (dLV/dLP)t      -1.00004
 (dLV/dLT)p        1.0003
 Cp, KJ/(KG)(K)    1.7331
 GAMMAs            1.2954
 SON VEL,M/SEC      899.5

 MOLE FRACTIONS

 *Ar             5.9422-3
 CH2             5.679-14
 CH3             1.5582-9
 CH2OH           1.166-12
 CH3O            6.050-14
 CH4             2.2111-6
 CH3OH           1.165-10
 *CN             4.972-13
 *CO             1.4936-1
 *CO2            1.6982-2
 COOH            5.662-10
 C2H2,acetylene  4.938-11
 C2H2,vinylidene 2.576-16
 CH2CO,ketene    1.663-10
 O(CH)2O         4.112-15
 C2H3,vinyl      1.727-15
 CH3CN           4.810-12
 CH3CO,acetyl    2.123-14
 C2H4            1.100-11
 CH3CHO,ethanal  2.808-13
 CH3COOH         1.788-14
 C2H5            6.317-16
 C2H6            8.932-14
 OCCN            2.418-15
 C2N2            5.422-14
 C2O             1.377-15
 C3O2            1.746-14
 *H              8.5587-6
 HCN             2.1930-6
 HCO             9.9468-9
 HCCO            1.285-14
 HNC             4.0865-8
 HNCO            2.1365-7
 HNO             8.158-13
 HNO2            4.092-16
 HO2             9.233-16
 *H2             2.4932-1
 HCHO,formaldehy 1.0886-7
 HCOOH           3.9384-8
 H2O             8.2911-2
 H2O2            4.742-14
 *N              1.174-13
 NCO             2.121-12
 *NH             6.197-12
 NH2             2.8110-9
 NH3             2.8899-5
 NH2OH           7.059-14
 *NO             2.0867-9
 *N2             4.9544-1
 N2O             2.656-13
 N2H2            8.506-14
 N2H4            8.764-16
 N3H             1.748-16
 *O              3.013-12
 *OH             1.2289-7
 *O2             4.593-13

  * THERMODYNAMIC PROPERTIES FITTED TO 20000.K

