*******************************************************************************

         NASA-GLENN CHEMICAL EQUILIBRIUM PROGRAM CEA2, FEBRUARY 5, 2004
                   BY  BONNIE MCBRIDE AND SANFORD GORDON
      REFS: NASA RP-1311, PART I, 1994 AND NASA RP-1311, PART II, 1996

 *******************************************************************************



  
 ### CEA analysis performed on Mon 11-Jul-2022 13:41:29
  
 # Problem Type: "Combustion at Assigned Volume"
  
 prob case=test___________6313 uv
  
 # Density (1 value):
 rho,kg/m**3= 1.0543
  
 # Equivalence based on Fuel/Oxid. wt ratio (Eq 9.19*) (1 value):
 phi= 2.9
  
 # You selected the following fuels and oxidizers:
 reac
 fuel CH4              mole=100.0000  t,k= 300.000
 oxid Air              mole=100.0000  t,k= 300.000
  
 # You selected these options for output:
 # short version of output
 output short
 # Proportions of any products will be expressed as Mole Fractions.
 # Heat will be expressed as siunits
 output siunits
 # Trace variable:
 output trace=1e-16
  
 # Input prepared by this script:/var/www/sites/cearun.grc.nasa.gov/cgi-bin/CEARU
 N/prepareInputFile.cgi
  
 ### IMPORTANT:  The following line is the end of your CEA input file!
 end




         THERMODYNAMIC EQUILIBRIUM COMBUSTION PROPERTIES AT ASSIGNED

                                     VOLUME

 CASE = test___________

             REACTANT                       MOLES         ENERGY      TEMP
                                                         KJ/KG-MOL      K
 FUEL        CH4                        100.0000000    -77028.260    300.000
 OXIDANT     Air                        100.0000000     -2566.042    300.000

 O/F=    5.94432  %FUEL= 14.400262  R,EQ.RATIO= 2.897111  PHI,EQ.RATIO= 2.900000

 THERMODYNAMIC PROPERTIES

 P, BAR            5.8445
 T, K             1326.21
 RHO, KG/CU M    1.0543 0
 H, KJ/KG         -212.92
 U, KJ/KG         -767.27
 G, KJ/KG        -14634.4
 S, KJ/(KG)(K)    10.8742

 M, (1/n)          19.891
 (dLV/dLP)t      -1.00064
 (dLV/dLT)p        1.0064
 Cp, KJ/(KG)(K)    1.7917
 GAMMAs            1.3083
 SON VEL,M/SEC      851.6

 MOLE FRACTIONS

 *Ar             5.5052-3
 CH2             3.378-15
 CH3             3.5646-9
 CH2OH           4.019-13
 CH3O            1.218-14
 CH4             1.4181-4
 CH3OH           6.679-10
 *CN             1.164-14
 *CO             1.6339-1
 *CO2            1.5204-2
 COOH            3.903-11
 C2H2,acetylene  4.041-10
 C2H2,vinylidene 1.484-16
 CH2CO,ketene    1.1055-9
 O(CH)2O         3.733-15
 C2H3,vinyl      5.817-15
 CH3CN           4.267-10
 CH3CO,acetyl    8.437-14
 C2H4            1.4776-9
 CH3CHO,ethanal  1.243-11
 CH3COOH         4.715-13
 C2H5            3.489-14
 C2H6            1.030-10
 C2H5OH          5.318-15
 OCCN            2.770-16
 C2N2            9.092-14
 C3H3,2-propynl  1.554-16
 C3H4,allene     3.007-15
 C3H4,propyne    9.176-15
 C3H6,propylene  1.819-14
 C3H6O,acetone   1.068-16
 C3H8            2.330-16
 C3O2            3.257-14
 *H              3.8022-7
 HCN             4.5929-6
 HCO             1.2500-9
 HCCO            2.863-15
 HNC             3.4303-8
 HNCO            2.4193-7
 HNO             2.791-15
 *H2             3.0385-1
 HCHO,formaldehy 1.3684-7
 HCOOH           3.0710-8
 H2O             5.2856-2
 *N              1.120-16
 NCO             5.636-14
 *NH             3.593-14
 NH2             2.109-10
 NH3             7.4565-5
 NH2OH           2.425-15
 *NO             7.668-12
 *N2             4.5897-1
 N2O             9.538-16
 N2H2            4.116-15
 N2H4            2.639-16
 *O              1.145-15
 *OH             1.1690-9

  * THERMODYNAMIC PROPERTIES FITTED TO 20000.K


