*******************************************************************************

         NASA-GLENN CHEMICAL EQUILIBRIUM PROGRAM CEA2, FEBRUARY 5, 2004
                   BY  BONNIE MCBRIDE AND SANFORD GORDON
      REFS: NASA RP-1311, PART I, 1994 AND NASA RP-1311, PART II, 1996

 *******************************************************************************



  
 ### CEA analysis performed on Mon 11-Jul-2022 13:42:10
  
 # Problem Type: "Combustion at Assigned Volume"
  
 prob case=test___________6313 uv
  
 # Density (1 value):
 rho,kg/m**3= 1.0511
  
 # Equivalence based on Fuel/Oxid. wt ratio (Eq 9.19*) (1 value):
 phi= 3.0
  
 # You selected the following fuels and oxidizers:
 reac
 fuel CH4              mole=100.0000  t,k= 300.000
 oxid Air              mole=100.0000  t,k= 300.000
  
 # You selected these options for output:
 # short version of output
 output short
 # Proportions of any products will be expressed as Mole Fractions.
 # Heat will be expressed as siunits
 output siunits
 # Trace variable:
 output trace=1e-16
  
 # Input prepared by this script:/var/www/sites/cearun.grc.nasa.gov/cgi-bin/CEARU
 N/prepareInputFile.cgi
  
 ### IMPORTANT:  The following line is the end of your CEA input file!
 end




         THERMODYNAMIC EQUILIBRIUM COMBUSTION PROPERTIES AT ASSIGNED

                                     VOLUME

 CASE = test___________

             REACTANT                       MOLES         ENERGY      TEMP
                                                         KJ/KG-MOL      K
 FUEL        CH4                        100.0000000    -77028.260    300.000
 OXIDANT     Air                        100.0000000     -2566.042    300.000

 O/F=    5.74617  %FUEL= 14.823217  R,EQ.RATIO= 2.996959  PHI,EQ.RATIO= 3.000000

 THERMODYNAMIC PROPERTIES

 P, BAR            5.6409
 T, K             1267.69
 RHO, KG/CU M    1.0511 0
 H, KJ/KG         -250.53
 U, KJ/KG         -787.20
 G, KJ/KG        -14078.5
 S, KJ/(KG)(K)    10.9080

 M, (1/n)          19.640
 (dLV/dLP)t      -1.00184
 (dLV/dLT)p        1.0199
 Cp, KJ/(KG)(K)    1.8642
 GAMMAs            1.3061
 SON VEL,M/SEC      837.2

 MOLE FRACTIONS

 *Ar             5.4088-3
 CH2             1.446-15
 CH3             4.3114-9
 CH2OH           2.871-13
 CH3O            7.494-15
 CH4             4.4401-4
 CH3OH           1.0612-9
 *CN             3.889-15
 *CO             1.6631-1
 *CO2            1.4894-2
 COOH            1.818-11
 C2H2,acetylene  6.981-10
 C2H2,vinylidene 1.194-16
 CH2CO,ketene    1.8283-9
 O(CH)2O         3.556-15
 C2H3,vinyl      7.715-15
 CH3CN           1.4553-9
 CH3CO,acetyl    1.197-13
 C2H4            5.6057-9
 CH3CHO,ethanal  3.490-11
 CH3COOH         1.166-12
 C2H5            1.018-13
 C2H6            7.132-10
 C2H5OH          2.034-14
 OCCN            1.457-16
 C2N2            1.022-13
 C3H3,2-propynl  3.631-16
 C3H4,allene     1.298-14
 C3H4,propyne    4.073-14
 C3H5,allyl      3.976-16
 C3H6,propylene  1.670-13
 C3H6,cyclo-     1.773-16
 C3H6O,acetone   7.881-16
 C3H6O,propanal  1.427-16
 C3H8            3.695-15
 C3O2            3.799-14
 *H              1.5454-7
 HCN             5.5314-6
 HCO             6.791-10
 HCCO            1.802-15
 HNC             3.1778-8
 HNCO            2.4825-7
 HNO             5.535-16
 *H2             3.1568-1
 HCHO,formaldehy 1.4289-7
 HCOOH           2.8595-8
 H2O             4.6232-2
 NCO             1.990-14
 *NH             8.148-15
 NH2             9.877-11
 NH3             9.5549-5
 NH2OH           9.198-16
 *NO             1.563-12
 *N2             4.5092-1
 N2O             1.944-16
 N2H2            1.715-15
 N2H4            1.825-16
 *O              1.216-16
 *OH             3.091-10

  * THERMODYNAMIC PROPERTIES FITTED TO 20000.K





