
 *******************************************************************************

         NASA-GLENN CHEMICAL EQUILIBRIUM PROGRAM CEA2, MAY 21, 2004
                   BY  BONNIE MCBRIDE AND SANFORD GORDON
      REFS: NASA RP-1311, PART I, 1994 AND NASA RP-1311, PART II, 1996

 *******************************************************************************



 problem    phi,eq.ratio=3.7,3.8,3.9,4,
       tp   t,k=2500,  p,bar=1,
 react
   fuel=C6H6 moles=1 t,k=300
   oxid=O2 moles=7.5 t,k=300
 output
      trace=1e-16 siunits short
 end




               THERMODYNAMIC EQUILIBRIUM PROPERTIES AT ASSIGNED

                           TEMPERATURE AND PRESSURE

 CASE =                

             REACTANT                       MOLES         ENERGY      TEMP
                                                         KJ/KG-MOL      K
 FUEL        C6H6                         1.0000000     83032.119    300.000
 OXIDANT     O2                           7.5000000        54.358    300.000

 O/F=    0.83038  %FUEL= 54.633494  R,EQ.RATIO= 3.700000  PHI,EQ.RATIO= 3.700000

 THERMODYNAMIC PROPERTIES

 P, BAR            1.0000
 T, K             2500.00
 RHO, KG/CU M    9.6727-2
 H, KJ/KG         1361.62
 U, KJ/KG          327.78
 G, KJ/KG        -30384.4
 S, KJ/(KG)(K)    12.6984

 M, (1/n)          20.106
 MW, MOL WT        15.899
 (dLV/dLP)t      -1.00405
 (dLV/dLT)p        1.0879
 Cp, KJ/(KG)(K)    3.1542
 GAMMAs            1.1780
 SON VEL,M/SEC     1103.6

 MOLE FRACTIONS

 *C              1.3150-7
 *CH             1.0163-7
 CH2             1.0541-6
 CH3             1.4331-5
 CH2OH           4.991-12
 CH3O            8.112-13
 CH4             2.0578-5
 CH3OH           1.280-12
 *CO             4.5081-1
 *CO2            1.0103-6
 COOH            2.434-12
 *C2             3.5604-8
 C2H             1.0042-5
 C2H2,acetylene  3.5169-3
 C2H2,vinylidene 2.7423-6
 CH2CO,ketene    2.1922-7
 O(CH)2O         3.269-15
 C2H3,vinyl      3.4778-7
 CH3CO,acetyl    4.250-11
 C2H4            1.0639-6
 C2H4O,ethylen-o 9.126-16
 CH3CHO,ethanal  2.915-12
 C2H5            1.797-10
 C2H6            4.194-11
 C2O             1.1878-7
 *C3             3.9363-7
 C3H3,1-propynl  8.174-10
 C3H3,2-propynl  1.1635-6
 C3H4,allene     2.2986-8
 C3H4,propyne    5.1956-8
 C3H4,cyclo-     2.779-10
 C3H5,allyl      9.986-11
 C3H6,propylene  1.640-11
 C3H6,cyclo-     9.149-14
 C3H7,n-propyl   9.256-16
 C3H7,i-propyl   6.456-16
 C3H8            2.117-16
 C3O2            5.485-10
 *C4             2.412-10
 C4H2,butadiyne  1.5683-5
 C4H4,1,3-cyclo- 2.033-12
 C4H6,butadiene  1.937-12
 C4H6,1butyne    2.863-13
 C4H6,2butyne    1.665-13
 C4H6,cyclo-     6.275-15
 *C5             1.1639-9
 C5H6,1,3cyclo-  5.254-14
 C6H2            7.3581-8
 C6H5,phenyl     5.630-14
 C6H6            1.228-13
 *H              1.2740-2
 HCO             1.0250-6
 HCCO            2.0826-8
 *H2             3.2362-1
 HCHO,formaldehy 7.5104-8
 HCOOH           9.561-13
 H2O             4.4924-6
 *O              9.440-10
 *OH             4.0362-8
 *O2             5.374-15
 C(gr)           2.0923-1

  * THERMODYNAMIC PROPERTIES FITTED TO 20000.K









               THERMODYNAMIC EQUILIBRIUM PROPERTIES AT ASSIGNED

                           TEMPERATURE AND PRESSURE

 CASE =                

             REACTANT                       MOLES         ENERGY      TEMP
                                                         KJ/KG-MOL      K
 FUEL        C6H6                         1.0000000     83032.119    300.000
 OXIDANT     O2                           7.5000000        54.358    300.000

 O/F=    0.80853  %FUEL= 55.293619  R,EQ.RATIO= 3.800000  PHI,EQ.RATIO= 3.800000

 THERMODYNAMIC PROPERTIES

 P, BAR            1.0000
 T, K             2500.00
 RHO, KG/CU M    9.7034-2
 H, KJ/KG         1439.98
 U, KJ/KG          409.41
 G, KJ/KG        -30263.2
 S, KJ/(KG)(K)    12.6813

 M, (1/n)          20.170
 MW, MOL WT        15.710
 (dLV/dLP)t      -1.00408
 (dLV/dLT)p        1.0886
 Cp, KJ/(KG)(K)    3.1782
 GAMMAs            1.1759
 SON VEL,M/SEC     1100.9

 MOLE FRACTIONS

 *C              1.2953-7
 *CH             1.0087-7
 CH2             1.0543-6
 CH3             1.4444-5
 CH2OH           4.973-12
 CH3O            8.082-13
 CH4             2.0900-5
 CH3OH           1.285-12
 *CO             4.3897-1
 *CO2            9.7249-7
 COOH            2.361-12
 *C2             3.5070-8
 C2H             9.9674-6
 C2H2,acetylene  3.5176-3
 C2H2,vinylidene 2.7429-6
 CH2CO,ketene    2.1676-7
 O(CH)2O         3.195-15
 C2H3,vinyl      3.5052-7
 CH3CO,acetyl    4.234-11
 C2H4            1.0806-6
 C2H4O,ethylen-o 9.163-16
 CH3CHO,ethanal  2.927-12
 C2H5            1.839-10
 C2H6            4.325-11
 C2O             1.1566-7
 *C3             3.8772-7
 C3H3,1-propynl  8.238-10
 C3H3,2-propynl  1.1726-6
 C3H4,allene     2.3345-8
 C3H4,propyne    5.2768-8
 C3H4,cyclo-     2.822-10
 C3H5,allyl      1.022-10
 C3H6,propylene  1.691-11
 C3H6,cyclo-     9.436-14
 C3H7,n-propyl   9.619-16
 C3H7,i-propyl   6.709-16
 C3H8            2.217-16
 C3O2            5.280-10
 *C4             2.376-10
 C4H2,butadiyne  1.5686-5
 C4H4,1,3-cyclo- 2.065-12
 C4H6,butadiene  1.997-12
 C4H6,1butyne    2.953-13
 C4H6,2butyne    1.717-13
 C4H6,cyclo-     6.472-15
 *C5             1.1464-9
 C5H6,1,3cyclo-  5.418-14
 C6H2            7.3596-8
 C6H5,phenyl     5.762-14
 C6H6            1.266-13
 *H              1.2646-2
 HCO             1.0058-6
 HCCO            2.0435-8
 *H2             3.2369-1
 HCHO,formaldehy 7.4260-8
 HCOOH           9.346-13
 H2O             4.4419-6
 *O              9.192-10
 *OH             3.9604-8
 *O2             5.173-15
 C(gr)           2.2111-1

  * THERMODYNAMIC PROPERTIES FITTED TO 20000.K









               THERMODYNAMIC EQUILIBRIUM PROPERTIES AT ASSIGNED

                           TEMPERATURE AND PRESSURE

 CASE =                

             REACTANT                       MOLES         ENERGY      TEMP
                                                         KJ/KG-MOL      K
 FUEL        C6H6                         1.0000000     83032.119    300.000
 OXIDANT     O2                           7.5000000        54.358    300.000

 O/F=    0.78780  %FUEL= 55.934810  R,EQ.RATIO= 3.900000  PHI,EQ.RATIO= 3.900000

 THERMODYNAMIC PROPERTIES

 P, BAR            1.0000
 T, K             2500.00
 RHO, KG/CU M    9.7334-2
 H, KJ/KG         1516.08
 U, KJ/KG          488.68
 G, KJ/KG        -30145.3
 S, KJ/(KG)(K)    12.6646

 M, (1/n)          20.232
 MW, MOL WT        15.531
 (dLV/dLP)t      -1.00411
 (dLV/dLT)p        1.0892
 Cp, KJ/(KG)(K)    3.2014
 GAMMAs            1.1740
 SON VEL,M/SEC     1098.2

 MOLE FRACTIONS

 *C              1.2765-7
 *CH             1.0015-7
 CH2             1.0545-6
 CH3             1.4554-5
 CH2OH           4.954-12
 CH3O            8.052-13
 CH4             2.1215-5
 CH3OH           1.290-12
 *CO             4.2774-1
 *CO2            9.3690-7
 COOH            2.292-12
 *C2             3.4563-8
 C2H             9.8959-6
 C2H2,acetylene  3.5182-3
 C2H2,vinylidene 2.7434-6
 CH2CO,ketene    2.1435-7
 O(CH)2O         3.124-15
 C2H3,vinyl      3.5318-7
 CH3CO,acetyl    4.218-11
 C2H4            1.0968-6
 C2H4O,ethylen-o 9.196-16
 CH3CHO,ethanal  2.938-12
 C2H5            1.881-10
 C2H6            4.455-11
 C2O             1.1270-7
 *C3             3.8211-7
 C3H3,1-propynl  8.301-10
 C3H3,2-propynl  1.1815-6
 C3H4,allene     2.3696-8
 C3H4,propyne    5.3562-8
 C3H4,cyclo-     2.865-10
 C3H5,allyl      1.045-10
 C3H6,propylene  1.742-11
 C3H6,cyclo-     9.720-14
 C3H7,n-propyl   9.983-16
 C3H7,i-propyl   6.963-16
 C3H8            2.318-16
 C3O2            5.087-10
 *C4             2.342-10
 C4H2,butadiyne  1.5689-5
 C4H4,1,3-cyclo- 2.096-12
 C4H6,butadiene  2.057-12
 C4H6,1butyne    3.042-13
 C4H6,2butyne    1.769-13
 C4H6,cyclo-     6.667-15
 *C5             1.1299-9
 C5H6,1,3cyclo-  5.581-14
 C6H2            7.3609-8
 C6H5,phenyl     5.892-14
 C6H6            1.305-13
 *H              1.2555-2
 HCO             9.8727-7
 HCCO            2.0059-8
 *H2             3.2375-1
 HCHO,formaldehy 7.3435-8
 HCOOH           9.137-13
 H2O             4.3926-6
 *O              8.957-10
 *OH             3.8876-8
 *O2             4.983-15
 C(gr)           2.3237-1

  * THERMODYNAMIC PROPERTIES FITTED TO 20000.K









               THERMODYNAMIC EQUILIBRIUM PROPERTIES AT ASSIGNED

                           TEMPERATURE AND PRESSURE

 CASE =                

             REACTANT                       MOLES         ENERGY      TEMP
                                                         KJ/KG-MOL      K
 FUEL        C6H6                         1.0000000     83032.119    300.000
 OXIDANT     O2                           7.5000000        54.358    300.000

 O/F=    0.76810  %FUEL= 56.557868  R,EQ.RATIO= 4.000000  PHI,EQ.RATIO= 4.000000

 THERMODYNAMIC PROPERTIES

 P, BAR            1.0000
 T, K             2500.00
 RHO, KG/CU M    9.7627-2
 H, KJ/KG         1590.02
 U, KJ/KG          565.71
 G, KJ/KG        -30030.6
 S, KJ/(KG)(K)    12.6482

 M, (1/n)          20.293
 MW, MOL WT        15.360
 (dLV/dLP)t      -1.00414
 (dLV/dLT)p        1.0899
 Cp, KJ/(KG)(K)    3.2239
 GAMMAs            1.1721
 SON VEL,M/SEC     1095.7

 MOLE FRACTIONS

 *C              1.2587-7
 *CH             9.9458-8
 CH2             1.0547-6
 CH3             1.4660-5
 CH2OH           4.934-12
 CH3O            8.020-13
 CH4             2.1522-5
 CH3OH           1.294-12
 *CO             4.1706-1
 *CO2            9.0331-7
 COOH            2.225-12
 *C2             3.4081-8
 C2H             9.8276-6
 C2H2,acetylene  3.5188-3
 C2H2,vinylidene 2.7439-6
 CH2CO,ketene    2.1199-7
 O(CH)2O         3.055-15
 C2H3,vinyl      3.5576-7
 CH3CO,acetyl    4.202-11
 C2H4            1.1127-6
 C2H4O,ethylen-o 9.225-16
 CH3CHO,ethanal  2.947-12
 C2H5            1.922-10
 C2H6            4.585-11
 C2O             1.0988-7
 *C3             3.7678-7
 C3H3,1-propynl  8.362-10
 C3H3,2-propynl  1.1902-6
 C3H4,allene     2.4040-8
 C3H4,propyne    5.4339-8
 C3H4,cyclo-     2.906-10
 C3H5,allyl      1.068-10
 C3H6,propylene  1.793-11
 C3H6,cyclo-     1.000-13
 C3H7,n-propyl   1.035-15
 C3H7,i-propyl   7.216-16
 C3H8            2.419-16
 C3O2            4.904-10
 *C4             2.309-10
 C4H2,butadiyne  1.5692-5
 C4H4,1,3-cyclo- 2.126-12
 C4H6,butadiene  2.117-12
 C4H6,1butyne    3.130-13
 C4H6,2butyne    1.820-13
 C4H6,cyclo-     6.860-15
 *C5             1.1141-9
 C5H6,1,3cyclo-  5.743-14
 C6H2            7.3622-8
 C6H5,phenyl     6.020-14
 C6H6            1.342-13
 *H              1.2468-2
 HCO             9.6950-7
 HCCO            1.9698-8
 *H2             3.2380-1
 HCHO,formaldehy 7.2627-8
 HCOOH           8.936-13
 H2O             4.3443-6
 *O              8.733-10
 *OH             3.8177-8
 *O2             4.805-15
 C(gr)           2.4307-1

  * THERMODYNAMIC PROPERTIES FITTED TO 20000.K



