
 *******************************************************************************

         NASA-GLENN CHEMICAL EQUILIBRIUM PROGRAM CEA2, MAY 21, 2004
                   BY  BONNIE MCBRIDE AND SANFORD GORDON
      REFS: NASA RP-1311, PART I, 1994 AND NASA RP-1311, PART II, 1996

 *******************************************************************************



 problem    phi,eq.ratio=0.5,0.6,0.7,0.8,0.9,1,1.1,1.2,1.3,1.4,1.5,1.6,1.7,1.8,1.
 9,2,
     tp   t,k=2500,  p,bar=1,
 react
   fuel=CH3OH moles=1  t,k=300
   oxid=O2 moles=1.5  t,k=300
 output  short   trace=1e-16
 end




               THERMODYNAMIC EQUILIBRIUM PROPERTIES AT ASSIGNED

                           TEMPERATURE AND PRESSURE

 CASE =                

             REACTANT                       MOLES         ENERGY      TEMP
                                                         KJ/KG-MOL      K
 FUEL        CH3OH                        1.0000000   -200858.418    300.000
 OXIDANT     O2                           1.5000000        54.358    300.000

 O/F=    2.99597  %FUEL= 25.025223  R,EQ.RATIO= 0.571429  PHI,EQ.RATIO= 0.500000

 THERMODYNAMIC PROPERTIES

 P, BAR            1.0000
 T, K             2500.00
 RHO, KG/CU M    1.3372-1
 H, KJ/KG        -2948.14
 U, KJ/KG        -3695.96
 G, KJ/KG        -29482.4
 S, KJ/(KG)(K)    10.6137

 M, (1/n)          27.796
 (dLV/dLP)t      -1.00938
 (dLV/dLT)p        1.2481
 Cp, KJ/(KG)(K)    3.7748
 GAMMAs            1.1288
 SON VEL,M/SEC      918.8

 MOLE FRACTIONS

 *C              5.606-16
 CH2OH           1.578-16
 *CO             1.3222-2
 *CO2            2.0387-1
 COOH            5.0377-8
 *H              1.6522-3
 HCO             3.0829-9
 HO2             4.1135-5
 *H2             4.3035-3
 HCHO,formaldehy 2.316-11
 HCOOH           2.0288-9
 H2O             4.1102-1
 H2O2            1.6566-6
 *O              8.2135-3
 *OH             3.6012-2
 *O2             3.2167-1
 O3              6.6720-8

  * THERMODYNAMIC PROPERTIES FITTED TO 20000.K









               THERMODYNAMIC EQUILIBRIUM PROPERTIES AT ASSIGNED

                           TEMPERATURE AND PRESSURE

 CASE =                

             REACTANT                       MOLES         ENERGY      TEMP
                                                         KJ/KG-MOL      K
 FUEL        CH3OH                        1.0000000   -200858.418    300.000
 OXIDANT     O2                           1.5000000        54.358    300.000

 O/F=    2.49664  %FUEL= 28.598881  R,EQ.RATIO= 0.666667  PHI,EQ.RATIO= 0.600000

 THERMODYNAMIC PROPERTIES

 P, BAR            1.0000
 T, K             2500.00
 RHO, KG/CU M    1.3136-1
 H, KJ/KG        -3738.46
 U, KJ/KG        -4499.70
 G, KJ/KG        -30831.0
 S, KJ/(KG)(K)    10.8370

 M, (1/n)          27.306
 (dLV/dLP)t      -1.01037
 (dLV/dLT)p        1.2736
 Cp, KJ/(KG)(K)    4.0921
 GAMMAs            1.1240
 SON VEL,M/SEC      925.0

 MOLE FRACTIONS

 *C              8.257-16
 CH3             1.432-16
 CH2OH           2.983-16
 *CO             1.6926-2
 *CO2            2.2679-1
 COOH            6.3810-8
 *H              1.8812-3
 HCO             4.4934-9
 HO2             3.5373-5
 *H2             5.5793-3
 HCHO,formaldehy 3.844-11
 HCOOH           2.9260-9
 H2O             4.6308-1
 H2O2            1.6220-6
 *O              7.1378-3
 *OH             3.5634-2
 *O2             2.4294-1
 O3              4.3791-8

  * THERMODYNAMIC PROPERTIES FITTED TO 20000.K









               THERMODYNAMIC EQUILIBRIUM PROPERTIES AT ASSIGNED

                           TEMPERATURE AND PRESSURE

 CASE =                

             REACTANT                       MOLES         ENERGY      TEMP
                                                         KJ/KG-MOL      K
 FUEL        CH3OH                        1.0000000   -200858.418    300.000
 OXIDANT     O2                           1.5000000        54.358    300.000

 O/F=    2.13998  %FUEL= 31.847363  R,EQ.RATIO= 0.756757  PHI,EQ.RATIO= 0.700000

 THERMODYNAMIC PROPERTIES

 P, BAR            1.0000
 T, K             2500.00
 RHO, KG/CU M    1.2920-1
 H, KJ/KG        -4443.24
 U, KJ/KG        -5217.23
 G, KJ/KG        -32034.7
 S, KJ/(KG)(K)    11.0366

 M, (1/n)          26.856
 (dLV/dLP)t      -1.01155
 (dLV/dLT)p        1.3040
 Cp, KJ/(KG)(K)    4.4429
 GAMMAs            1.1197
 SON VEL,M/SEC      931.0

 MOLE FRACTIONS

 *C              1.241-15
 *CH             1.274-16
 CH2             1.755-16
 CH3             3.168-16
 CH2OH           5.597-16
 *CO             2.1581-2
 *CO2            2.4535-1
 COOH            7.8521-8
 *H              2.1398-3
 HCO             6.5168-9
 HO2             2.8964-5
 *H2             7.2187-3
 HCHO,formaldehy 6.342-11
 HCOOH           4.0956-9
 H2O             5.0835-1
 H2O2            1.5107-6
 *O              6.0561-3
 *OH             3.4390-2
 *O2             1.7488-1
 O3              2.6747-8

  * THERMODYNAMIC PROPERTIES FITTED TO 20000.K









               THERMODYNAMIC EQUILIBRIUM PROPERTIES AT ASSIGNED

                           TEMPERATURE AND PRESSURE

 CASE =                

             REACTANT                       MOLES         ENERGY      TEMP
                                                         KJ/KG-MOL      K
 FUEL        CH3OH                        1.0000000   -200858.418    300.000
 OXIDANT     O2                           1.5000000        54.358    300.000

 O/F=    1.87248  %FUEL= 34.813120  R,EQ.RATIO= 0.842105  PHI,EQ.RATIO= 0.800000

 THERMODYNAMIC PROPERTIES

 P, BAR            1.0000
 T, K             2500.00
 RHO, KG/CU M    1.2712-1
 H, KJ/KG        -5061.15
 U, KJ/KG        -5847.82
 G, KJ/KG        -33111.5
 S, KJ/(KG)(K)    11.2201

 M, (1/n)          26.423
 (dLV/dLP)t      -1.01305
 (dLV/dLT)p        1.3420
 Cp, KJ/(KG)(K)    4.8551
 GAMMAs            1.1157
 SON VEL,M/SEC      936.8

 MOLE FRACTIONS

 *C              1.968-15
 *CH             2.321-16
 CH2             3.672-16
 CH3             7.615-16
 CH2OH           1.098-15
 CH3O            1.784-16
 CH4             1.668-16
 *CO             2.7934-2
 *CO2            2.5915-1
 COOH            9.5263-8
 *H              2.4578-3
 HCO             9.6890-9
 HO2             2.2153-5
 *H2             9.5237-3
 HCHO,formaldehy 1.083-10
 HCOOH           5.7073-9
 H2O             5.4728-1
 H2O2            1.3272-6
 *O              4.9419-3
 *OH             3.2233-2
 *O2             1.1645-1
 O3              1.4534-8

  * THERMODYNAMIC PROPERTIES FITTED TO 20000.K









               THERMODYNAMIC EQUILIBRIUM PROPERTIES AT ASSIGNED

                           TEMPERATURE AND PRESSURE

 CASE =                

             REACTANT                       MOLES         ENERGY      TEMP
                                                         KJ/KG-MOL      K
 FUEL        CH3OH                        1.0000000   -200858.418    300.000
 OXIDANT     O2                           1.5000000        54.358    300.000

 O/F=    1.66443  %FUEL= 37.531523  R,EQ.RATIO= 0.923077  PHI,EQ.RATIO= 0.900000

 THERMODYNAMIC PROPERTIES

 P, BAR            1.0000
 T, K             2500.00
 RHO, KG/CU M    1.2494-1
 H, KJ/KG        -5574.37
 U, KJ/KG        -6374.78
 G, KJ/KG        -34074.9
 S, KJ/(KG)(K)    11.4002

 M, (1/n)          25.970
 (dLV/dLP)t      -1.01489
 (dLV/dLT)p        1.3887
 Cp, KJ/(KG)(K)    5.3437
 GAMMAs            1.1119
 SON VEL,M/SEC      943.4

 MOLE FRACTIONS

 *C              3.481-15
 *CH             4.834-16
 CH2             9.011-16
 CH3             2.201-15
 CH2OH           2.420-15
 CH3O            3.934-16
 CH4             5.681-16
 CH3OH           1.116-16
 *CO             3.7671-2
 *CO2            2.6652-1
 COOH            1.1542-7
 C2O             2.077-16
 *H              2.8954-3
 HCO             1.5392-8
 HO2             1.5179-5
 *H2             1.3217-2
 HCHO,formaldehy 2.027-10
 HCOOH           8.1457-9
 H2O             5.7923-1
 H2O2            1.0712-6
 *O              3.7689-3
 *OH             2.8959-2
 *O2             6.7730-2
 O3              6.4464-9

  * THERMODYNAMIC PROPERTIES FITTED TO 20000.K









               THERMODYNAMIC EQUILIBRIUM PROPERTIES AT ASSIGNED

                           TEMPERATURE AND PRESSURE

 CASE =                

             REACTANT                       MOLES         ENERGY      TEMP
                                                         KJ/KG-MOL      K
 FUEL        CH3OH                        1.0000000   -200858.418    300.000
 OXIDANT     O2                           1.5000000        54.358    300.000

 O/F=    1.49798  %FUEL= 40.032279  R,EQ.RATIO= 1.000000  PHI,EQ.RATIO= 1.000000

 THERMODYNAMIC PROPERTIES

 P, BAR            1.0000
 T, K             2500.00
 RHO, KG/CU M    1.2225-1
 H, KJ/KG        -5920.93
 U, KJ/KG        -6738.93
 G, KJ/KG        -34933.1
 S, KJ/(KG)(K)    11.6049

 M, (1/n)          25.411
 (dLV/dLP)t      -1.01612
 (dLV/dLT)p        1.4194
 Cp, KJ/(KG)(K)    5.7189
 GAMMAs            1.1100
 SON VEL,M/SEC      952.9

 MOLE FRACTIONS

 *C              7.477-15
 *CH             1.285-15
 CH2             2.964-15
 CH3             8.962-15
 CH2OH           6.674-15
 CH3O            1.085-15
 CH4             2.862-15
 CH3OH           3.808-16
 *CO             5.4814-2
 *CO2            2.6267-1
 COOH            1.4076-7
 C2O             6.494-16
 *H              3.5830-3
 HCO             2.7716-8
 HO2             8.6170-6
 *H2             2.0240-2
 HCHO,formaldehy 4.516-10
 HCOOH           1.2294-8
 H2O             6.0079-1
 H2O2            7.5257-7
 *O              2.5527-3
 *OH             2.4272-2
 *O2             3.1071-2
 O3              2.0030-9

  * THERMODYNAMIC PROPERTIES FITTED TO 20000.K









               THERMODYNAMIC EQUILIBRIUM PROPERTIES AT ASSIGNED

                           TEMPERATURE AND PRESSURE

 CASE =                

             REACTANT                       MOLES         ENERGY      TEMP
                                                         KJ/KG-MOL      K
 FUEL        CH3OH                        1.0000000   -200858.418    300.000
 OXIDANT     O2                           1.5000000        54.358    300.000

 O/F=    1.36180  %FUEL= 42.340519  R,EQ.RATIO= 1.073171  PHI,EQ.RATIO= 1.100000

 THERMODYNAMIC PROPERTIES

 P, BAR            1.0000
 T, K             2500.00
 RHO, KG/CU M    1.1843-1
 H, KJ/KG        -5981.81
 U, KJ/KG        -6826.20
 G, KJ/KG        -35690.8
 S, KJ/(KG)(K)    11.8836

 M, (1/n)          24.617
 (dLV/dLP)t      -1.01338
 (dLV/dLT)p        1.3470
 Cp, KJ/(KG)(K)    5.2403
 GAMMAs            1.1155
 SON VEL,M/SEC      970.5

 MOLE FRACTIONS

 *C              1.950-14
 *CH             4.368-15
 CH2             1.313-14
 CH3             5.173-14
 CH2OH           2.282-14
 CH3O            3.710-15
 CH4             2.153-14
 CH3OH           1.697-15
 *CO             8.4722-2
 *CO2            2.4057-1
 COOH            1.6799-7
 CH2CO,ketene    4.058-16
 C2O             2.618-15
 *H              4.6690-3
 HCO             5.5823-8
 HCCO            1.330-16
 HO2             3.9426-6
 *H2             3.4368-2
 HCHO,formaldehy 1.1853-9
 HCOOH           1.9119-8
 H2O             6.0450-1
 H2O2            4.4869-7
 *O              1.5126-3
 *OH             1.8742-2
 *O2             1.0910-2
 O3              4.167-10

  * THERMODYNAMIC PROPERTIES FITTED TO 20000.K









               THERMODYNAMIC EQUILIBRIUM PROPERTIES AT ASSIGNED

                           TEMPERATURE AND PRESSURE

 CASE =                

             REACTANT                       MOLES         ENERGY      TEMP
                                                         KJ/KG-MOL      K
 FUEL        CH3OH                        1.0000000   -200858.418    300.000
 OXIDANT     O2                           1.5000000        54.358    300.000

 O/F=    1.24832  %FUEL= 44.477651  R,EQ.RATIO= 1.142857  PHI,EQ.RATIO= 1.200000

 THERMODYNAMIC PROPERTIES

 P, BAR            1.0000
 T, K             2500.00
 RHO, KG/CU M    1.1379-1
 H, KJ/KG        -5784.45
 U, KJ/KG        -6663.25
 G, KJ/KG        -36357.5
 S, KJ/(KG)(K)    12.2292

 M, (1/n)          23.653
 (dLV/dLP)t      -1.00912
 (dLV/dLT)p        1.2350
 Cp, KJ/(KG)(K)    4.3743
 GAMMAs            1.1280
 SON VEL,M/SEC      995.6

 MOLE FRACTIONS

 *C              4.646-14
 *CH             1.327-14
 CH2             5.084-14
 CH3             2.554-13
 CH2OH           6.773-14
 CH3O            1.101-14
 CH4             1.355-13
 CH3OH           6.419-15
 *CO             1.2130-1
 *CO2            2.0703-1
 COOH            1.8432-7
 CH2CO,ketene    2.249-15
 C2O             8.928-15
 *H              5.9527-3
 HCO             1.0190-7
 HCCO            5.784-16
 HO2             1.8161-6
 *H2             5.5866-2
 HCHO,formaldehy 2.7585-9
 HCOOH           2.6746-8
 H2O             5.9064-1
 H2O2            2.6351-7
 *O              9.0921-4
 *OH             1.4363-2
 *O2             3.9417-3
 O3              9.050-11

  * THERMODYNAMIC PROPERTIES FITTED TO 20000.K









               THERMODYNAMIC EQUILIBRIUM PROPERTIES AT ASSIGNED

                           TEMPERATURE AND PRESSURE

 CASE =                

             REACTANT                       MOLES         ENERGY      TEMP
                                                         KJ/KG-MOL      K
 FUEL        CH3OH                        1.0000000   -200858.418    300.000
 OXIDANT     O2                           1.5000000        54.358    300.000

 O/F=    1.15230  %FUEL= 46.462021  R,EQ.RATIO= 1.209302  PHI,EQ.RATIO= 1.300000

 THERMODYNAMIC PROPERTIES

 P, BAR            1.0000
 T, K             2500.00
 RHO, KG/CU M    1.0930-1
 H, KJ/KG        -5496.42
 U, KJ/KG        -6411.36
 G, KJ/KG        -36949.9
 S, KJ/(KG)(K)    12.5814

 M, (1/n)          22.719
 (dLV/dLP)t      -1.00685
 (dLV/dLT)p        1.1743
 Cp, KJ/(KG)(K)    3.9113
 GAMMAs            1.1392
 SON VEL,M/SEC     1020.9

 MOLE FRACTIONS

 *C              8.816-14
 *CH             3.022-14
 CH2             1.390-13
 CH3             8.384-13
 CH2OH           1.486-13
 CH3O            2.416-14
 CH4             5.340-13
 CH3OH           1.691-14
 *CO             1.5387-1
 *CO2            1.7556-1
 COOH            1.8764-7
 C2H2,acetylene  2.459-16
 CH2CO,ketene    7.805-15
 C2O             2.149-14
 *H              7.1462-3
 HCO             1.5518-7
 HCCO            1.672-15
 HO2             9.7421-7
 *H2             8.0514-2
 HCHO,formaldehy 5.0433-9
 HCOOH           3.2686-8
 H2O             5.6901-1
 H2O2            1.6970-7
 *O              6.0777-4
 *OH             1.1526-2
 *O2             1.7613-3
 O3              2.703-11

  * THERMODYNAMIC PROPERTIES FITTED TO 20000.K









               THERMODYNAMIC EQUILIBRIUM PROPERTIES AT ASSIGNED

                           TEMPERATURE AND PRESSURE

 CASE =                

             REACTANT                       MOLES         ENERGY      TEMP
                                                         KJ/KG-MOL      K
 FUEL        CH3OH                        1.0000000   -200858.418    300.000
 OXIDANT     O2                           1.5000000        54.358    300.000

 O/F=    1.06999  %FUEL= 48.309442  R,EQ.RATIO= 1.272727  PHI,EQ.RATIO= 1.400000

 THERMODYNAMIC PROPERTIES

 P, BAR            1.0000
 T, K             2500.00
 RHO, KG/CU M    1.0527-1
 H, KJ/KG        -5195.78
 U, KJ/KG        -6145.74
 G, KJ/KG        -37482.9
 S, KJ/(KG)(K)    12.9148

 M, (1/n)          21.881
 (dLV/dLP)t      -1.00578
 (dLV/dLT)p        1.1449
 Cp, KJ/(KG)(K)    3.7075
 GAMMAs            1.1475
 SON VEL,M/SEC     1044.1

 MOLE FRACTIONS

 *C              1.414-13
 *CH             5.557-14
 CH2             2.930-13
 CH3             2.025-12
 CH2OH           2.618-13
 CH3O            4.256-14
 CH4             1.478-12
 CH3OH           3.415-14
 *CO             1.8006-1
 *CO2            1.4984-1
 COOH            1.8355-7
 C2H2,acetylene  8.314-16
 CH2CO,ketene    1.924-14
 O(CH)2O         1.066-16
 C2O             4.035-14
 *H              8.1901-3
 HCO             2.0811-7
 HCCO            3.597-15
 HO2             5.9401-7
 *H2             1.0575-1
 HCHO,formaldehy 7.7515-9
 HCOOH           3.6644-8
 H2O             5.4514-1
 H2O2            1.1858-7
 *O              4.4330-4
 *OH             9.6350-3
 *O2             9.3704-4
 O3              1.049-11

  * THERMODYNAMIC PROPERTIES FITTED TO 20000.K









               THERMODYNAMIC EQUILIBRIUM PROPERTIES AT ASSIGNED

                           TEMPERATURE AND PRESSURE

 CASE =                

             REACTANT                       MOLES         ENERGY      TEMP
                                                         KJ/KG-MOL      K
 FUEL        CH3OH                        1.0000000   -200858.418    300.000
 OXIDANT     O2                           1.5000000        54.358    300.000

 O/F=    0.99866  %FUEL= 50.033619  R,EQ.RATIO= 1.333333  PHI,EQ.RATIO= 1.500000

 THERMODYNAMIC PROPERTIES

 P, BAR            1.0000
 T, K             2500.00
 RHO, KG/CU M    1.0171-1
 H, KJ/KG        -4904.04
 U, KJ/KG        -5887.22
 G, KJ/KG        -37967.1
 S, KJ/(KG)(K)    13.2252

 M, (1/n)          21.142
 (dLV/dLP)t      -1.00523
 (dLV/dLT)p        1.1293
 Cp, KJ/(KG)(K)    3.6203
 GAMMAs            1.1538
 SON VEL,M/SEC     1065.1

 MOLE FRACTIONS

 *C              2.035-13
 *CH             8.881-14
 CH2             5.201-13
 CH3             3.993-12
 CH2OH           4.000-13
 CH3O            6.502-14
 CH4             3.237-12
 CH3OH           5.794-14
 *CO             2.0072-1
 *CO2            1.2941-1
 COOH            1.7608-7
 C2H2,acetylene  2.124-15
 CH2CO,ketene    3.808-14
 O(CH)2O         1.634-16
 C2O             6.472-14
 C3O2            1.052-16
 *H              9.0972-3
 HCO             2.5769-7
 HCCO            6.407-15
 HO2             3.9605-7
 *H2             1.3048-1
 HCHO,formaldehy 1.0661-8
 HCOOH           3.9047-8
 H2O             5.2109-1
 H2O2            8.7822-8
 *O              3.4345-4
 *OH             8.2916-3
 *O2             5.6246-4
 O3              4.879-12

  * THERMODYNAMIC PROPERTIES FITTED TO 20000.K









               THERMODYNAMIC EQUILIBRIUM PROPERTIES AT ASSIGNED

                           TEMPERATURE AND PRESSURE

 CASE =                

             REACTANT                       MOLES         ENERGY      TEMP
                                                         KJ/KG-MOL      K
 FUEL        CH3OH                        1.0000000   -200858.418    300.000
 OXIDANT     O2                           1.5000000        54.358    300.000

 O/F=    0.93624  %FUEL= 51.646487  R,EQ.RATIO= 1.391304  PHI,EQ.RATIO= 1.600000

 THERMODYNAMIC PROPERTIES

 P, BAR            1.0000
 T, K             2500.00
 RHO, KG/CU M    9.8571-2
 H, KJ/KG        -4626.83
 U, KJ/KG        -5641.32
 G, KJ/KG        -38410.4
 S, KJ/(KG)(K)    13.5134

 M, (1/n)          20.489
 (dLV/dLP)t      -1.00493
 (dLV/dLT)p        1.1204
 Cp, KJ/(KG)(K)    3.5885
 GAMMAs            1.1588
 SON VEL,M/SEC     1084.2

 MOLE FRACTIONS

 *C              2.722-13
 *CH             1.291-13
 CH2             8.220-13
 CH3             6.859-12
 CH2OH           5.556-13
 CH3O            9.031-14
 CH4             6.045-12
 CH3OH           8.748-14
 *CO             2.1709-1
 *CO2            1.1316-1
 COOH            1.6736-7
 C2H2,acetylene  4.490-15
 CH2CO,ketene    6.510-14
 O(CH)2O         2.258-16
 C2O             9.364-14
 C3O2            1.647-16
 *H              9.8883-3
 HCO             3.0294-7
 HCCO            1.008-14
 HO2             2.8140-7
 *H2             1.5416-1
 HCHO,formaldehy 1.3623-8
 HCOOH           4.0341-8
 H2O             4.9777-1
 H2O2            6.7826-8
 *O              2.7768-4
 *OH             7.2868-3
 *O2             3.6767-4
 O3              2.578-12

  * THERMODYNAMIC PROPERTIES FITTED TO 20000.K









               THERMODYNAMIC EQUILIBRIUM PROPERTIES AT ASSIGNED

                           TEMPERATURE AND PRESSURE

 CASE =                

             REACTANT                       MOLES         ENERGY      TEMP
                                                         KJ/KG-MOL      K
 FUEL        CH3OH                        1.0000000   -200858.418    300.000
 OXIDANT     O2                           1.5000000        54.358    300.000

 O/F=    0.88117  %FUEL= 53.158487  R,EQ.RATIO= 1.446809  PHI,EQ.RATIO= 1.700000

 THERMODYNAMIC PROPERTIES

 P, BAR            1.0000
 T, K             2500.00
 RHO, KG/CU M    9.5787-2
 H, KJ/KG        -4365.17
 U, KJ/KG        -5409.15
 G, KJ/KG        -38818.4
 S, KJ/(KG)(K)    13.7813

 M, (1/n)          19.911
 (dLV/dLP)t      -1.00475
 (dLV/dLT)p        1.1149
 Cp, KJ/(KG)(K)    3.5853
 GAMMAs            1.1628
 SON VEL,M/SEC     1101.8

 MOLE FRACTIONS

 *C              3.460-13
 *CH             1.757-13
 CH2             1.197-12
 CH3             1.068-11
 CH2OH           7.221-13
 CH3O            1.174-13
 CH4             1.008-11
 CH3OH           1.217-13
 *CO             2.3021-1
 *CO2            1.0011-1
 COOH            1.5845-7
 C2H2,acetylene  8.308-15
 CH2CO,ketene    1.005-13
 O(CH)2O         2.908-16
 C2O             1.262-13
 C3O2            2.354-16
 *H              1.0582-2
 HCO             3.4378-7
 HCCO            1.454-14
 HO2             2.0959-7
 *H2             1.7654-1
 HCHO,formaldehy 1.6544-8
 HCOOH           4.0870-8
 H2O             4.7556-1
 H2O2            5.4060-8
 *O              2.3166-4
 *OH             6.5054-3
 *O2             2.5589-4
 O3              1.497-12

  * THERMODYNAMIC PROPERTIES FITTED TO 20000.K









               THERMODYNAMIC EQUILIBRIUM PROPERTIES AT ASSIGNED

                           TEMPERATURE AND PRESSURE

 CASE =                

             REACTANT                       MOLES         ENERGY      TEMP
                                                         KJ/KG-MOL      K
 FUEL        CH3OH                        1.0000000   -200858.418    300.000
 OXIDANT     O2                           1.5000000        54.358    300.000

 O/F=    0.83221  %FUEL= 54.578794  R,EQ.RATIO= 1.500000  PHI,EQ.RATIO= 1.800000

 THERMODYNAMIC PROPERTIES

 P, BAR            1.0000
 T, K             2500.00
 RHO, KG/CU M    9.3305-2
 H, KJ/KG        -4118.64
 U, KJ/KG        -5190.39
 G, KJ/KG        -39195.8
 S, KJ/(KG)(K)    14.0309

 M, (1/n)          19.395
 (dLV/dLP)t      -1.00465
 (dLV/dLT)p        1.1113
 Cp, KJ/(KG)(K)    3.5979
 GAMMAs            1.1662
 SON VEL,M/SEC     1118.0

 MOLE FRACTIONS

 *C              4.237-13
 *CH             2.275-13
 CH2             1.640-12
 CH3             1.549-11
 CH2OH           8.941-13
 CH3O            1.453-13
 CH4             1.545-11
 CH3OH           1.594-13
 *CO             2.4086-1
 *CO2            8.9497-2
 COOH            1.4983-7
 C2H2,acetylene  1.394-14
 CH2CO,ketene    1.441-13
 O(CH)2O         3.562-16
 C2O             1.617-13
 C3O2            3.155-16
 *H              1.1193-2
 HCO             3.8047-7
 HCCO            1.970-14
 HO2             1.6185-7
 *H2             1.9753-1
 HCHO,formaldehy 1.9368-8
 HCOOH           4.0881-8
 H2O             4.5465-1
 H2O2            4.4160-8
 *O              1.9794-4
 *OH             5.8797-3
 *O2             1.8682-4
 O3              9.338-13

  * THERMODYNAMIC PROPERTIES FITTED TO 20000.K









               THERMODYNAMIC EQUILIBRIUM PROPERTIES AT ASSIGNED

                           TEMPERATURE AND PRESSURE

 CASE =                

             REACTANT                       MOLES         ENERGY      TEMP
                                                         KJ/KG-MOL      K
 FUEL        CH3OH                        1.0000000   -200858.418    300.000
 OXIDANT     O2                           1.5000000        54.358    300.000

 O/F=    0.78841  %FUEL= 55.915504  R,EQ.RATIO= 1.551020  PHI,EQ.RATIO= 1.900000

 THERMODYNAMIC PROPERTIES

 P, BAR            1.0000
 T, K             2500.00
 RHO, KG/CU M    9.1079-2
 H, KJ/KG        -3886.33
 U, KJ/KG        -4984.27
 G, KJ/KG        -39546.3
 S, KJ/(KG)(K)    14.2640

 M, (1/n)          18.932
 (dLV/dLP)t      -1.00458
 (dLV/dLT)p        1.1090
 Cp, KJ/(KG)(K)    3.6193
 GAMMAs            1.1691
 SON VEL,M/SEC     1133.0

 MOLE FRACTIONS

 *C              5.044-13
 *CH             2.840-13
 CH2             2.145-12
 CH3             2.124-11
 CH2OH           1.068-12
 CH3O            1.736-13
 CH4             2.222-11
 CH3OH           1.996-13
 *CO             2.4963-1
 *CO2            8.0750-2
 COOH            1.4173-7
 C2H2,acetylene  2.171-14
 CH2CO,ketene    1.954-13
 O(CH)2O         4.205-16
 C2O             1.995-13
 C3O2            4.034-16
 *H              1.1735-2
 HCO             4.1341-7
 HCCO            2.548-14
 HO2             1.2861-7
 *H2             2.1713-1
 HCHO,formaldehy 2.2064-8
 HCOOH           4.0545-8
 H2O             4.3508-1
 H2O2            3.6790-8
 *O              1.7232-4
 *OH             5.3666-3
 *O2             1.4159-4
 O3              6.162-13

  * THERMODYNAMIC PROPERTIES FITTED TO 20000.K









               THERMODYNAMIC EQUILIBRIUM PROPERTIES AT ASSIGNED

                           TEMPERATURE AND PRESSURE

 CASE =                

             REACTANT                       MOLES         ENERGY      TEMP
                                                         KJ/KG-MOL      K
 FUEL        CH3OH                        1.0000000   -200858.418    300.000
 OXIDANT     O2                           1.5000000        54.358    300.000

 O/F=    0.74899  %FUEL= 57.175787  R,EQ.RATIO= 1.600000  PHI,EQ.RATIO= 2.000000

 THERMODYNAMIC PROPERTIES

 P, BAR            1.0000
 T, K             2500.00
 RHO, KG/CU M    8.9074-2
 H, KJ/KG        -3667.23
 U, KJ/KG        -4789.89
 G, KJ/KG        -39872.9
 S, KJ/(KG)(K)    14.4823

 M, (1/n)          18.515
 (dLV/dLP)t      -1.00454
 (dLV/dLT)p        1.1074
 Cp, KJ/(KG)(K)    3.6458
 GAMMAs            1.1717
 SON VEL,M/SEC     1146.9

 MOLE FRACTIONS

 *C              5.875-13
 *CH             3.443-13
 CH2             2.709-12
 CH3             2.793-11
 CH2OH           1.241-12
 CH3O            2.017-13
 CH4             3.041-11
 CH3OH           2.414-13
 *CO             2.5693-1
 *CO2            7.3452-2
 COOH            1.3423-7
 C2H             1.202-16
 C2H2,acetylene  3.193-14
 CH2CO,ketene    2.539-13
 O(CH)2O         4.829-16
 C2O             2.392-13
 C3O2            4.978-16
 *H              1.2219-2
 HCO             4.4304-7
 HCCO            3.180-14
 HO2             1.0458-7
 *H2             2.3538-1
 HCHO,formaldehy 2.4619-8
 HCOOH           3.9980-8
 H2O             4.1682-1
 H2O2            3.1148-8
 *O              1.5229-4
 *OH             4.9380-3
 *O2             1.1058-4
 O3              4.253-13

  * THERMODYNAMIC PROPERTIES FITTED TO 20000.K



