
 *******************************************************************************

         NASA-GLENN CHEMICAL EQUILIBRIUM PROGRAM CEA2, MAY 21, 2004
                   BY  BONNIE MCBRIDE AND SANFORD GORDON
      REFS: NASA RP-1311, PART I, 1994 AND NASA RP-1311, PART II, 1996

 *******************************************************************************



 problem    phi,eq.ratio=2.1,2.2,2.3,2.4,2.5,2.6,2.7,2.8,2.9,3,3.1,3.2,3.3,3.4,3.
 5,3.6,
       tp   t,k=2500,  p,bar=1,
 react
   fuel=CH3OH moles=1 t,k=300
   oxid=O2 moles=1.5 t,k=300
   oxid=N2 moles=5.6429 t,k=300
 output
      trace=1e-16 siunits short
 end




               THERMODYNAMIC EQUILIBRIUM PROPERTIES AT ASSIGNED

                           TEMPERATURE AND PRESSURE

 CASE =                

             REACTANT                       MOLES         ENERGY      TEMP
                                                         KJ/KG-MOL      K
 FUEL        CH3OH                        1.0000000   -200858.418    300.000
 OXIDANT     O2                           1.5000000        54.358    300.000
 OXIDANT     N2                           5.6429000        53.881    300.000

 O/F=    3.06259  %FUEL= 24.614862  R,EQ.RATIO= 1.647059  PHI,EQ.RATIO= 2.100000

 THERMODYNAMIC PROPERTIES

 P, BAR            1.0000
 T, K             2500.00
 RHO, KG/CU M    1.0938-1
 H, KJ/KG          118.56
 U, KJ/KG         -795.65
 G, KJ/KG        -29469.2
 S, KJ/(KG)(K)    11.8351

 M, (1/n)          22.737
 (dLV/dLP)t      -1.00342
 (dLV/dLT)p        1.0814
 Cp, KJ/(KG)(K)    2.5362
 GAMMAs            1.1979
 SON VEL,M/SEC     1046.5

 MOLE FRACTIONS

 *C              3.569-13
 *CH             1.573-13
 CH2             9.300-13
 CH3             7.208-12
 CH2OH           2.855-13
 CH3O            4.641-14
 CH4             5.901-12
 CH3OH           4.176-14
 *CN             1.639-10
 *CO             1.3919-1
 *CO2            3.5481-2
 COOH            4.8746-8
 C2H2,acetylene  6.659-15
 CH2CO,ketene    4.722-14
 OCCN            5.424-15
 C2N2            1.677-16
 C2O             7.871-14
 *H              9.1857-3
 HCN             4.1767-8
 HCO             1.8043-7
 HCCO            7.868-15
 HNC             4.4430-9
 HNCO            1.8757-8
 HNO             5.3325-8
 HNO2            1.0130-9
 HNO3            3.311-15
 HO2             6.2516-8
 *H2             1.3303-1
 HCHO,formaldehy 7.5372-9
 HCOOH           1.0915-8
 H2O             2.1006-1
 H2O2            1.3997-8
 *N              1.9998-7
 NCO             8.305-10
 *NH             9.6257-8
 NH2             9.7697-8
 NH3             3.4817-7
 NH2OH           5.376-12
 *NO             3.6309-4
 NO2             6.6635-9
 NO3             3.411-16
 *N2             4.6916-1
 NCN             1.935-15
 N2H2            2.500-12
 N2O             1.5611-8
 N3              1.292-13
 N3H             7.363-14
 *O              1.3580-4
 *OH             3.3103-3
 *O2             8.7929-5
 O3              3.015-13

  * THERMODYNAMIC PROPERTIES FITTED TO 20000.K









               THERMODYNAMIC EQUILIBRIUM PROPERTIES AT ASSIGNED

                           TEMPERATURE AND PRESSURE

 CASE =                

             REACTANT                       MOLES         ENERGY      TEMP
                                                         KJ/KG-MOL      K
 FUEL        CH3OH                        1.0000000   -200858.418    300.000
 OXIDANT     O2                           1.5000000        54.358    300.000
 OXIDANT     N2                           5.6429000        53.881    300.000

 O/F=    2.92338  %FUEL= 25.488241  R,EQ.RATIO= 1.692308  PHI,EQ.RATIO= 2.200000

 THERMODYNAMIC PROPERTIES

 P, BAR            1.0000
 T, K             2500.00
 RHO, KG/CU M    1.0795-1
 H, KJ/KG          160.37
 U, KJ/KG         -765.99
 G, KJ/KG        -29730.0
 S, KJ/(KG)(K)    11.9562

 M, (1/n)          22.439
 (dLV/dLP)t      -1.00343
 (dLV/dLT)p        1.0811
 Cp, KJ/(KG)(K)    2.5568
 GAMMAs            1.1990
 SON VEL,M/SEC     1053.9

 MOLE FRACTIONS

 *C              4.112-13
 *CH             1.888-13
 CH2             1.163-12
 CH3             9.392-12
 CH2OH           3.365-13
 CH3O            5.470-14
 CH4             8.011-12
 CH3OH           5.128-14
 *CN             1.865-10
 *CO             1.4505-1
 *CO2            3.3445-2
 COOH            4.7872-8
 C2H2,acetylene  9.595-15
 CH2CO,ketene    6.154-14
 OCCN            6.431-15
 C2N2            2.171-16
 C2O             9.450-14
 C3O2            1.110-16
 *H              9.5701-3
 HCN             4.9516-8
 HCO             1.9589-7
 HCCO            9.842-15
 HNC             5.2672-9
 HNCO            2.0114-8
 HNO             4.9633-8
 HNO2            8.528-10
 HNO3            2.521-15
 HO2             5.3290-8
 *H2             1.4440-1
 HCHO,formaldehy 8.5258-9
 HCOOH           1.1168-8
 H2O             2.0624-1
 H2O2            1.2431-8
 *N              1.9752-7
 NCO             8.548-10
 *NH             9.9049-8
 NH2             1.0474-7
 NH3             3.8888-7
 NH2OH           5.431-12
 *NO             3.2437-4
 NO2             5.3846-9
 NO3             2.493-16
 *N2             4.5766-1
 NCN             2.175-15
 N2H2            2.647-12
 N2O             1.3774-8
 N3              1.245-13
 N3H             7.391-14
 *O              1.2283-4
 *OH             3.1196-3
 *O2             7.1942-5
 O3              2.232-13

  * THERMODYNAMIC PROPERTIES FITTED TO 20000.K









               THERMODYNAMIC EQUILIBRIUM PROPERTIES AT ASSIGNED

                           TEMPERATURE AND PRESSURE

 CASE =                

             REACTANT                       MOLES         ENERGY      TEMP
                                                         KJ/KG-MOL      K
 FUEL        CH3OH                        1.0000000   -200858.418    300.000
 OXIDANT     O2                           1.5000000        54.358    300.000
 OXIDANT     N2                           5.6429000        53.881    300.000

 O/F=    2.79627  %FUEL= 26.341615  R,EQ.RATIO= 1.735849  PHI,EQ.RATIO= 2.300000

 THERMODYNAMIC PROPERTIES

 P, BAR            1.0000
 T, K             2500.00
 RHO, KG/CU M    1.0658-1
 H, KJ/KG          201.34
 U, KJ/KG         -736.90
 G, KJ/KG        -29983.4
 S, KJ/(KG)(K)    12.0739

 M, (1/n)          22.154
 (dLV/dLP)t      -1.00345
 (dLV/dLT)p        1.0811
 Cp, KJ/(KG)(K)    2.5791
 GAMMAs            1.1999
 SON VEL,M/SEC     1061.1

 MOLE FRACTIONS

 *C              4.677-13
 *CH             2.227-13
 CH2             1.424-12
 CH3             1.192-11
 CH2OH           3.897-13
 CH3O            6.335-14
 CH4             1.055-11
 CH3OH           6.161-14
 *CN             2.096-10
 *CO             1.5048-1
 *CO2            3.1649-2
 COOH            4.6994-8
 C2H2,acetylene  1.336-14
 CH2CO,ketene    7.814-14
 O(CH)2O         1.094-16
 OCCN            7.498-15
 C2N2            2.742-16
 C2O             1.115-13
 C3O2            1.359-16
 *H              9.9276-3
 HCN             5.7720-8
 HCO             2.1083-7
 HCCO            1.205-14
 HNC             6.1399-9
 HNCO            2.1386-8
 HNO             4.6398-8
 HNO2            7.272-10
 HNO3            1.961-15
 HO2             4.5993-8
 *H2             1.5538-1
 HCHO,formaldehy 9.5185-9
 HCOOH           1.1372-8
 H2O             2.0244-1
 H2O2            1.1130-8
 *N              1.9514-7
 NCO             8.761-10
 *NH             1.0151-7
 NH2             1.1135-7
 NH3             4.2888-7
 NH2OH           5.463-12
 *NO             2.9231-4
 NO2             4.4260-9
 NO3             1.869-16
 *N2             4.4670-1
 NCN             2.415-15
 N2H2            2.781-12
 N2O             1.2263-8
 N3              1.200-13
 N3H             7.394-14
 *O              1.1204-4
 *OH             2.9518-3
 *O2             5.9855-5
 O3              1.694-13

  * THERMODYNAMIC PROPERTIES FITTED TO 20000.K









               THERMODYNAMIC EQUILIBRIUM PROPERTIES AT ASSIGNED

                           TEMPERATURE AND PRESSURE

 CASE =                

             REACTANT                       MOLES         ENERGY      TEMP
                                                         KJ/KG-MOL      K
 FUEL        CH3OH                        1.0000000   -200858.418    300.000
 OXIDANT     O2                           1.5000000        54.358    300.000
 OXIDANT     N2                           5.6429000        53.881    300.000

 O/F=    2.67976  %FUEL= 27.175664  R,EQ.RATIO= 1.777778  PHI,EQ.RATIO= 2.400000

 THERMODYNAMIC PROPERTIES

 P, BAR            1.0000
 T, K             2500.00
 RHO, KG/CU M    1.0528-1
 H, KJ/KG          241.47
 U, KJ/KG         -708.40
 G, KJ/KG        -30229.8
 S, KJ/(KG)(K)    12.1885

 M, (1/n)          21.883
 (dLV/dLP)t      -1.00347
 (dLV/dLT)p        1.0812
 Cp, KJ/(KG)(K)    2.6026
 GAMMAs            1.2008
 SON VEL,M/SEC     1068.0

 MOLE FRACTIONS

 *C              5.262-13
 *CH             2.590-13
 CH2             1.711-12
 CH3             1.481-11
 CH2OH           4.448-13
 CH3O            7.230-14
 CH4             1.355-11
 CH3OH           7.267-14
 *CN             2.330-10
 *CO             1.5555-1
 *CO2            3.0054-2
 COOH            4.6124-8
 C2H2,acetylene  1.806-14
 CH2CO,ketene    9.708-14
 O(CH)2O         1.248-16
 OCCN            8.617-15
 C2N2            3.390-16
 C2O             1.297-13
 C3O2            1.634-16
 *H              1.0261-2
 HCN             6.6333-8
 HCO             2.2524-7
 HCCO            1.448-14
 HNC             7.0561-9
 HNCO            2.2579-8
 HNO             4.3537-8
 HNO2            6.269-10
 HNO3            1.553-15
 HO2             4.0120-8
 *H2             1.6599-1
 HCHO,formaldehy 1.0510-8
 HCOOH           1.1536-8
 H2O             1.9867-1
 H2O2            1.0035-8
 *N              1.9284-7
 NCO             8.949-10
 *NH             1.0368-7
 NH2             1.1755-7
 NH3             4.6797-7
 NH2OH           5.477-12
 *NO             2.6538-4
 NO2             3.6915-9
 NO3             1.432-16
 *N2             4.3625-1
 NCN             2.653-15
 N2H2            2.901-12
 N2O             1.1003-8
 N3              1.158-13
 N3H             7.375-14
 *O              1.0293-4
 *OH             2.8028-3
 *O2             5.0516-5
 O3              1.313-13

  * THERMODYNAMIC PROPERTIES FITTED TO 20000.K









               THERMODYNAMIC EQUILIBRIUM PROPERTIES AT ASSIGNED

                           TEMPERATURE AND PRESSURE

 CASE =                

             REACTANT                       MOLES         ENERGY      TEMP
                                                         KJ/KG-MOL      K
 FUEL        CH3OH                        1.0000000   -200858.418    300.000
 OXIDANT     O2                           1.5000000        54.358    300.000
 OXIDANT     N2                           5.6429000        53.881    300.000

 O/F=    2.57257  %FUEL= 27.991035  R,EQ.RATIO= 1.818182  PHI,EQ.RATIO= 2.500000

 THERMODYNAMIC PROPERTIES

 P, BAR            1.0000
 T, K             2500.00
 RHO, KG/CU M    1.0403-1
 H, KJ/KG          280.74
 U, KJ/KG         -680.49
 G, KJ/KG        -30469.5
 S, KJ/(KG)(K)    12.3001

 M, (1/n)          21.625
 (dLV/dLP)t      -1.00349
 (dLV/dLT)p        1.0815
 Cp, KJ/(KG)(K)    2.6269
 GAMMAs            1.2015
 SON VEL,M/SEC     1074.7

 MOLE FRACTIONS

 *C              5.866-13
 *CH             2.975-13
 CH2             2.025-12
 CH3             1.806-11
 CH2OH           5.014-13
 CH3O            8.149-14
 CH4             1.702-11
 CH3OH           8.440-14
 *CN             2.568-10
 *CO             1.6028-1
 *CO2            2.8627-2
 COOH            4.5268-8
 C2H             1.037-16
 C2H2,acetylene  2.383-14
 CH2CO,ketene    1.184-13
 O(CH)2O         1.407-16
 OCCN            9.785-15
 C2N2            4.116-16
 C2O             1.490-13
 C3O2            1.934-16
 *H              1.0572-2
 HCN             7.5313-8
 HCO             2.3914-7
 HCCO            1.714-14
 HNC             8.0114-9
 HNCO            2.3697-8
 HNO             4.0990-8
 HNO2            5.455-10
 HNO3            1.249-15
 HO2             3.5323-8
 *H2             1.7623-1
 HCHO,formaldehy 1.1498-8
 HCOOH           1.1666-8
 H2O             1.9497-1
 H2O2            9.1027-9
 *N              1.9062-7
 NCO             9.116-10
 *NH             1.0560-7
 NH2             1.2336-7
 NH3             5.0601-7
 NH2OH           5.474-12
 *NO             2.4249-4
 NO2             3.1180-9
 NO3             1.118-16
 *N2             4.2627-1
 NCN             2.890-15
 N2H2            3.009-12
 N2H4            1.065-16
 N2O             9.9379-9
 N3              1.119-13
 N3H             7.340-14
 *O              9.5145-5
 *OH             2.6695-3
 *O2             4.3165-5
 O3              1.037-13

  * THERMODYNAMIC PROPERTIES FITTED TO 20000.K









               THERMODYNAMIC EQUILIBRIUM PROPERTIES AT ASSIGNED

                           TEMPERATURE AND PRESSURE

 CASE =                

             REACTANT                       MOLES         ENERGY      TEMP
                                                         KJ/KG-MOL      K
 FUEL        CH3OH                        1.0000000   -200858.418    300.000
 OXIDANT     O2                           1.5000000        54.358    300.000
 OXIDANT     N2                           5.6429000        53.881    300.000

 O/F=    2.47363  %FUEL= 28.788350  R,EQ.RATIO= 1.857143  PHI,EQ.RATIO= 2.600000

 THERMODYNAMIC PROPERTIES

 P, BAR            1.0000
 T, K             2500.00
 RHO, KG/CU M    1.0284-1
 H, KJ/KG          319.17
 U, KJ/KG         -653.17
 G, KJ/KG        -30702.9
 S, KJ/(KG)(K)    12.4088

 M, (1/n)          21.377
 (dLV/dLP)t      -1.00352
 (dLV/dLT)p        1.0818
 Cp, KJ/(KG)(K)    2.6515
 GAMMAs            1.2021
 SON VEL,M/SEC     1081.1

 MOLE FRACTIONS

 *C              6.487-13
 *CH             3.381-13
 CH2             2.365-12
 CH3             2.168-11
 CH2OH           5.591-13
 CH3O            9.088-14
 CH4             2.099-11
 CH3OH           9.672-14
 *CN             2.808-10
 *CO             1.6472-1
 *CO2            2.7343-2
 COOH            4.4430-8
 C2H             1.303-16
 C2H2,acetylene  3.077-14
 CH2CO,ketene    1.421-13
 O(CH)2O         1.569-16
 OCCN            1.100-14
 C2N2            4.921-16
 C2O             1.693-13
 C3O2            2.259-16
 *H              1.0864-2
 HCN             8.4621-8
 HCO             2.5255-7
 HCCO            2.002-14
 HNC             9.0015-9
 HNCO            2.4745-8
 HNO             3.8706-8
 HNO2            4.788-10
 HNO3            1.019-15
 HO2             3.1351-8
 *H2             1.8609-1
 HCHO,formaldehy 1.2478-8
 HCOOH           1.1766-8
 H2O             1.9134-1
 H2O2            8.3022-9
 *N              1.8848-7
 NCO             9.263-10
 *NH             1.0730-7
 NH2             1.2881-7
 NH3             5.4291-7
 NH2OH           5.458-12
 *NO             2.2282-4
 NO2             2.6628-9
 *N2             4.1674-1
 NCN             3.125-15
 N2H2            3.107-12
 N2H4            1.161-16
 N2O             9.0294-9
 N3              1.082-13
 N3H             7.291-14
 *O              8.8424-5
 *OH             2.5494-3
 *O2             3.7282-5
 O3              8.325-14

  * THERMODYNAMIC PROPERTIES FITTED TO 20000.K









               THERMODYNAMIC EQUILIBRIUM PROPERTIES AT ASSIGNED

                           TEMPERATURE AND PRESSURE

 CASE =                

             REACTANT                       MOLES         ENERGY      TEMP
                                                         KJ/KG-MOL      K
 FUEL        CH3OH                        1.0000000   -200858.418    300.000
 OXIDANT     O2                           1.5000000        54.358    300.000
 OXIDANT     N2                           5.6429000        53.881    300.000

 O/F=    2.38201  %FUEL= 29.568202  R,EQ.RATIO= 1.894737  PHI,EQ.RATIO= 2.700000

 THERMODYNAMIC PROPERTIES

 P, BAR            1.0000
 T, K             2500.00
 RHO, KG/CU M    1.0171-1
 H, KJ/KG          356.78
 U, KJ/KG         -626.44
 G, KJ/KG        -30930.3
 S, KJ/(KG)(K)    12.5148

 M, (1/n)          21.141
 (dLV/dLP)t      -1.00354
 (dLV/dLT)p        1.0821
 Cp, KJ/(KG)(K)    2.6765
 GAMMAs            1.2027
 SON VEL,M/SEC     1087.4

 MOLE FRACTIONS

 *C              7.124-13
 *CH             3.806-13
 CH2             2.729-12
 CH3             2.565-11
 CH2OH           6.178-13
 CH3O            1.004-13
 CH4             2.546-11
 CH3OH           1.096-13
 *CN             3.050-10
 *CO             1.6891-1
 *CO2            2.6180-2
 COOH            4.3614-8
 C2H             1.611-16
 C2H2,acetylene  3.901-14
 CH2CO,ketene    1.682-13
 O(CH)2O         1.734-16
 OCCN            1.224-14
 C2N2            5.804-16
 C2O             1.906-13
 C3O2            2.608-16
 *H              1.1138-2
 HCN             9.4222-8
 HCO             2.6550-7
 HCCO            2.311-14
 HNC             1.0023-8
 HNCO            2.5727-8
 HNO             3.6646-8
 HNO2            4.233-10
 HNO3            8.411-16
 HO2             2.8024-8
 *H2             1.9560-1
 HCHO,formaldehy 1.3449-8
 HCOOH           1.1841-8
 H2O             1.8779-1
 H2O2            7.6085-9
 *N              1.8641-7
 NCO             9.394-10
 *NH             1.0880-7
 NH2             1.3390-7
 NH3             5.7860-7
 NH2OH           5.432-12
 *NO             2.0578-4
 NO2             2.2962-9
 *N2             4.0762-1
 NCN             3.356-15
 N2H2            3.194-12
 N2H4            1.255-16
 N2O             8.2468-9
 N3              1.046-13
 N3H             7.231-14
 *O              8.2567-5
 *OH             2.4406-3
 *O2             3.2506-5
 O3              6.778-14

  * THERMODYNAMIC PROPERTIES FITTED TO 20000.K









               THERMODYNAMIC EQUILIBRIUM PROPERTIES AT ASSIGNED

                           TEMPERATURE AND PRESSURE

 CASE =                

             REACTANT                       MOLES         ENERGY      TEMP
                                                         KJ/KG-MOL      K
 FUEL        CH3OH                        1.0000000   -200858.418    300.000
 OXIDANT     O2                           1.5000000        54.358    300.000
 OXIDANT     N2                           5.6429000        53.881    300.000

 O/F=    2.29694  %FUEL= 30.331159  R,EQ.RATIO= 1.931034  PHI,EQ.RATIO= 2.800000

 THERMODYNAMIC PROPERTIES

 P, BAR            1.0000
 T, K             2500.00
 RHO, KG/CU M    1.0062-1
 H, KJ/KG          393.58
 U, KJ/KG         -600.29
 G, KJ/KG        -31151.9
 S, KJ/(KG)(K)    12.6182

 M, (1/n)          20.915
 (dLV/dLP)t      -1.00357
 (dLV/dLT)p        1.0825
 Cp, KJ/(KG)(K)    2.7015
 GAMMAs            1.2032
 SON VEL,M/SEC     1093.5

 MOLE FRACTIONS

 *C              7.775-13
 *CH             4.250-13
 CH2             3.118-12
 CH3             2.999-11
 CH2OH           6.772-13
 CH3O            1.101-13
 CH4             3.046-11
 CH3OH           1.229-13
 *CN             3.292-10
 *CO             1.7286-1
 *CO2            2.5122-2
 COOH            4.2820-8
 C2H             1.963-16
 C2H2,acetylene  4.864-14
 CH2CO,ketene    1.966-13
 O(CH)2O         1.902-16
 OCCN            1.353-14
 C2N2            6.766-16
 C2O             2.129-13
 C3O2            2.981-16
 *H              1.1396-2
 HCN             1.0408-7
 HCO             2.7800-7
 HCCO            2.641-14
 HNC             1.1072-8
 HNCO            2.6648-8
 HNO             3.4779-8
 HNO2            3.766-10
 HNO3            7.018-16
 HO2             2.5210-8
 *H2             2.0476-1
 HCHO,formaldehy 1.4408-8
 HCOOH           1.1895-8
 H2O             1.8433-1
 H2O2            7.0028-9
 *N              1.8440-7
 NCO             9.510-10
 *NH             1.1012-7
 NH2             1.3866-7
 NH3             6.1306-7
 NH2OH           5.396-12
 *NO             1.9087-4
 NO2             1.9971-9
 *N2             3.9890-1
 NCN             3.585-15
 N2H2            3.272-12
 N2H4            1.346-16
 N2O             7.5671-9
 N3              1.013-13
 N3H             7.162-14
 *O              7.7420-5
 *OH             2.3414-3
 *O2             2.8580-5
 O3              5.588-14

  * THERMODYNAMIC PROPERTIES FITTED TO 20000.K









               THERMODYNAMIC EQUILIBRIUM PROPERTIES AT ASSIGNED

                           TEMPERATURE AND PRESSURE

 CASE =                

             REACTANT                       MOLES         ENERGY      TEMP
                                                         KJ/KG-MOL      K
 FUEL        CH3OH                        1.0000000   -200858.418    300.000
 OXIDANT     O2                           1.5000000        54.358    300.000
 OXIDANT     N2                           5.6429000        53.881    300.000

 O/F=    2.21773  %FUEL= 31.077763  R,EQ.RATIO= 1.966102  PHI,EQ.RATIO= 2.900000

 THERMODYNAMIC PROPERTIES

 P, BAR            1.0000
 T, K             2500.00
 RHO, KG/CU M    9.9574-2
 H, KJ/KG          429.60
 U, KJ/KG         -574.69
 G, KJ/KG        -31367.9
 S, KJ/(KG)(K)    12.7190

 M, (1/n)          20.698
 (dLV/dLP)t      -1.00360
 (dLV/dLT)p        1.0829
 Cp, KJ/(KG)(K)    2.7264
 GAMMAs            1.2036
 SON VEL,M/SEC     1099.4

 MOLE FRACTIONS

 *C              8.440-13
 *CH             4.712-13
 CH2             3.531-12
 CH3             3.468-11
 CH2OH           7.371-13
 CH3O            1.198-13
 CH4             3.597-11
 CH3OH           1.366-13
 *CN             3.536-10
 *CO             1.7659-1
 *CO2            2.4154-2
 COOH            4.2049-8
 C2H             2.363-16
 C2H2,acetylene  5.978-14
 CH2CO,ketene    2.275-13
 O(CH)2O         2.070-16
 OCCN            1.485-14
 C2N2            7.805-16
 C2O             2.361-13
 C3O2            3.378-16
 *H              1.1639-2
 HCN             1.1418-7
 HCO             2.9007-7
 HCCO            2.991-14
 HNC             1.2146-8
 HNCO            2.7512-8
 HNO             3.3078-8
 HNO2            3.371-10
 HNO3            5.913-16
 HO2             2.2806-8
 *H2             2.1359-1
 HCHO,formaldehy 1.5354-8
 HCOOH           1.1930-8
 H2O             1.8096-1
 H2O2            6.4703-9
 *N              1.8246-7
 NCO             9.613-10
 *NH             1.1128-7
 NH2             1.4311-7
 NH3             6.4625-7
 NH2OH           5.354-12
 *NO             1.7774-4
 NO2             1.7503-9
 *N2             3.9053-1
 NCN             3.809-15
 N2H2            3.342-12
 N2H4            1.434-16
 N2O             6.9725-9
 N3              9.812-14
 N3H             7.086-14
 *O              7.2864-5
 *OH             2.2506-3
 *O2             2.5315-5
 O3              4.658-14

  * THERMODYNAMIC PROPERTIES FITTED TO 20000.K









               THERMODYNAMIC EQUILIBRIUM PROPERTIES AT ASSIGNED

                           TEMPERATURE AND PRESSURE

 CASE =                

             REACTANT                       MOLES         ENERGY      TEMP
                                                         KJ/KG-MOL      K
 FUEL        CH3OH                        1.0000000   -200858.418    300.000
 OXIDANT     O2                           1.5000000        54.358    300.000
 OXIDANT     N2                           5.6429000        53.881    300.000

 O/F=    2.14381  %FUEL= 31.808534  R,EQ.RATIO= 2.000000  PHI,EQ.RATIO= 3.000000

 THERMODYNAMIC PROPERTIES

 P, BAR            1.0000
 T, K             2500.00
 RHO, KG/CU M    9.8573-2
 H, KJ/KG          464.85
 U, KJ/KG         -549.63
 G, KJ/KG        -31578.7
 S, KJ/(KG)(K)    12.8174

 M, (1/n)          20.490
 (dLV/dLP)t      -1.00362
 (dLV/dLT)p        1.0833
 Cp, KJ/(KG)(K)    2.7512
 GAMMAs            1.2040
 SON VEL,M/SEC     1105.2

 MOLE FRACTIONS

 *C              9.117-13
 *CH             5.191-13
 CH2             3.966-12
 CH3             3.972-11
 CH2OH           7.973-13
 CH3O            1.296-13
 CH4             4.202-11
 CH3OH           1.507-13
 *CN             3.781-10
 *CO             1.8014-1
 *CO2            2.3266-2
 COOH            4.1302-8
 C2H             2.812-16
 C2H2,acetylene  7.255-14
 CH2CO,ketene    2.606-13
 O(CH)2O         2.240-16
 OCCN            1.619-14
 C2N2            8.921-16
 C2O             2.602-13
 C3O2            3.797-16
 *H              1.1869-2
 HCN             1.2448-7
 HCO             3.0172-7
 HCCO            3.361-14
 HNC             1.3241-8
 HNCO            2.8323-8
 HNO             3.1522-8
 HNO2            3.034-10
 HNO3            5.024-16
 HO2             2.0737-8
 *H2             2.2210-1
 HCHO,formaldehy 1.6286-8
 HCOOH           1.1949-8
 H2O             1.7769-1
 H2O2            5.9992-9
 *N              1.8057-7
 NCO             9.705-10
 *NH             1.1230-7
 NH2             1.4728-7
 NH3             6.7819-7
 NH2OH           5.305-12
 *NO             1.6611-4
 NO2             1.5446-9
 *N2             3.8251-1
 NCN             4.031-15
 N2H2            3.403-12
 N2H4            1.519-16
 N2O             6.4487-9
 N3              9.511-14
 N3H             7.004-14
 *O              6.8803-5
 *OH             2.1671-3
 *O2             2.2572-5
 O3              3.922-14

  * THERMODYNAMIC PROPERTIES FITTED TO 20000.K









               THERMODYNAMIC EQUILIBRIUM PROPERTIES AT ASSIGNED

                           TEMPERATURE AND PRESSURE

 CASE =                

             REACTANT                       MOLES         ENERGY      TEMP
                                                         KJ/KG-MOL      K
 FUEL        CH3OH                        1.0000000   -200858.418    300.000
 OXIDANT     O2                           1.5000000        54.358    300.000
 OXIDANT     N2                           5.6429000        53.881    300.000

 O/F=    2.07466  %FUEL= 32.523972  R,EQ.RATIO= 2.032787  PHI,EQ.RATIO= 3.100000

 THERMODYNAMIC PROPERTIES

 P, BAR            1.0000
 T, K             2500.00
 RHO, KG/CU M    9.7612-2
 H, KJ/KG          499.35
 U, KJ/KG         -525.11
 G, KJ/KG        -31784.5
 S, KJ/(KG)(K)    12.9135

 M, (1/n)          20.290
 (dLV/dLP)t      -1.00365
 (dLV/dLT)p        1.0837
 Cp, KJ/(KG)(K)    2.7759
 GAMMAs            1.2044
 SON VEL,M/SEC     1110.8

 MOLE FRACTIONS

 *C              9.806-13
 *CH             5.685-13
 CH2             4.424-12
 CH3             4.511-11
 CH2OH           8.576-13
 CH3O            1.394-13
 CH4             4.860-11
 CH3OH           1.650-13
 *CN             4.025-10
 *CO             1.8350-1
 *CO2            2.2447-2
 COOH            4.0578-8
 C2H             3.313-16
 C2H2,acetylene  8.703-14
 CH2CO,ketene    2.961-13
 O(CH)2O         2.410-16
 OCCN            1.756-14
 C2N2            1.011-15
 C2O             2.851-13
 C3O2            4.238-16
 *H              1.2086-2
 HCN             1.3496-7
 HCO             3.1299-7
 HCCO            3.750-14
 HNC             1.4356-8
 HNCO            2.9083-8
 HNO             3.0094-8
 HNO2            2.743-10
 HNO3            4.302-16
 HO2             1.8941-8
 *H2             2.3030-1
 HCHO,formaldehy 1.7204-8
 HCOOH           1.1955-8
 H2O             1.7451-1
 H2O2            5.5801-9
 *N              1.7875-7
 NCO             9.786-10
 *NH             1.1320-7
 NH2             1.5118-7
 NH3             7.0889-7
 NH2OH           5.252-12
 *NO             1.5573-4
 NO2             1.3715-9
 *N2             3.7481-1
 NCN             4.248-15
 N2H2            3.458-12
 N2H4            1.600-16
 N2O             5.9847-9
 N3              9.225-14
 N3H             6.918-14
 *O              6.5164-5
 *OH             2.0901-3
 *O2             2.0247-5
 O3              3.332-14

  * THERMODYNAMIC PROPERTIES FITTED TO 20000.K









               THERMODYNAMIC EQUILIBRIUM PROPERTIES AT ASSIGNED

                           TEMPERATURE AND PRESSURE

 CASE =                

             REACTANT                       MOLES         ENERGY      TEMP
                                                         KJ/KG-MOL      K
 FUEL        CH3OH                        1.0000000   -200858.418    300.000
 OXIDANT     O2                           1.5000000        54.358    300.000
 OXIDANT     N2                           5.6429000        53.881    300.000

 O/F=    2.00982  %FUEL= 33.224554  R,EQ.RATIO= 2.064516  PHI,EQ.RATIO= 3.200000

 THERMODYNAMIC PROPERTIES

 P, BAR            1.0000
 T, K             2500.00
 RHO, KG/CU M    9.6689-2
 H, KJ/KG          533.14
 U, KJ/KG         -501.10
 G, KJ/KG        -31985.3
 S, KJ/(KG)(K)    13.0074

 M, (1/n)          20.098
 (dLV/dLP)t      -1.00368
 (dLV/dLT)p        1.0842
 Cp, KJ/(KG)(K)    2.8003
 GAMMAs            1.2048
 SON VEL,M/SEC     1116.3

 MOLE FRACTIONS

 *C              1.051-12
 *CH             6.195-13
 CH2             4.902-12
 CH3             5.085-11
 CH2OH           9.179-13
 CH3O            1.492-13
 CH4             5.571-11
 CH3OH           1.797-13
 *CN             4.270-10
 *CO             1.8671-1
 *CO2            2.1690-2
 COOH            3.9876-8
 C2H             3.867-16
 C2H2,acetylene  1.033-13
 CH2CO,ketene    3.339-13
 O(CH)2O         2.581-16
 OCCN            1.895-14
 C2N2            1.138-15
 C2O             3.108-13
 C3O2            4.701-16
 *H              1.2292-2
 HCN             1.4560-7
 HCO             3.2388-7
 HCCO            4.158-14
 HNC             1.5488-8
 HNCO            2.9797-8
 HNO             2.8778-8
 HNO2            2.491-10
 HNO3            3.711-16
 HO2             1.7373-8
 *H2             2.3822-1
 HCHO,formaldehy 1.8106-8
 HCOOH           1.1948-8
 H2O             1.7142-1
 H2O2            5.2055-9
 *N              1.7698-7
 NCO             9.859-10
 *NH             1.1399-7
 NH2             1.5482-7
 NH3             7.3835-7
 NH2OH           5.195-12
 *NO             1.4642-4
 NO2             1.2246-9
 *N2             3.6742-1
 NCN             4.462-15
 N2H2            3.506-12
 N2H4            1.678-16
 N2O             5.5713-9
 N3              8.954-14
 N3H             6.829-14
 *O              6.1884-5
 *OH             2.0187-3
 *O2             1.8260-5
 O3              2.854-14

  * THERMODYNAMIC PROPERTIES FITTED TO 20000.K









               THERMODYNAMIC EQUILIBRIUM PROPERTIES AT ASSIGNED

                           TEMPERATURE AND PRESSURE

 CASE =                

             REACTANT                       MOLES         ENERGY      TEMP
                                                         KJ/KG-MOL      K
 FUEL        CH3OH                        1.0000000   -200858.418    300.000
 OXIDANT     O2                           1.5000000        54.358    300.000
 OXIDANT     N2                           5.6429000        53.881    300.000

 O/F=    1.94892  %FUEL= 33.910737  R,EQ.RATIO= 2.095238  PHI,EQ.RATIO= 3.300000

 THERMODYNAMIC PROPERTIES

 P, BAR            1.0000
 T, K             2500.00
 RHO, KG/CU M    9.5802-2
 H, KJ/KG          566.23
 U, KJ/KG         -477.59
 G, KJ/KG        -32181.5
 S, KJ/(KG)(K)    13.0991

 M, (1/n)          19.914
 (dLV/dLP)t      -1.00370
 (dLV/dLT)p        1.0846
 Cp, KJ/(KG)(K)    2.8244
 GAMMAs            1.2051
 SON VEL,M/SEC     1121.6

 MOLE FRACTIONS

 *C              1.122-12
 *CH             6.719-13
 CH2             5.402-12
 CH3             5.692-11
 CH2OH           9.782-13
 CH3O            1.590-13
 CH4             6.335-11
 CH3OH           1.945-13
 *CN             4.514-10
 *CO             1.8977-1
 *CO2            2.0986-2
 COOH            3.9197-8
 C2H             4.478-16
 C2H2,acetylene  1.216-13
 CH2CO,ketene    3.739-13
 O(CH)2O         2.752-16
 OCCN            2.037-14
 C2N2            1.272-15
 C2O             3.372-13
 C3O2            5.184-16
 *H              1.2488-2
 HCN             1.5638-7
 HCO             3.3442-7
 HCCO            4.583-14
 HNC             1.6635-8
 HNCO            3.0467-8
 HNO             2.7561-8
 HNO2            2.271-10
 HNO3            3.221-16
 HO2             1.5996-8
 *H2             2.4586-1
 HCHO,formaldehy 1.8992-8
 HCOOH           1.1932-8
 H2O             1.6842-1
 H2O2            4.8689-9
 *N              1.7526-7
 NCO             9.922-10
 *NH             1.1468-7
 NH2             1.5824-7
 NH3             7.6662-7
 NH2OH           5.135-12
 *NO             1.3804-4
 NO2             1.0990-9
 *N2             3.6031-1
 NCN             4.671-15
 N2H2            3.549-12
 N2H4            1.753-16
 N2O             5.2012-9
 N3              8.695-14
 N3H             6.737-14
 *O              5.8913-5
 *OH             1.9523-3
 *O2             1.6549-5
 O3              2.462-14

  * THERMODYNAMIC PROPERTIES FITTED TO 20000.K









               THERMODYNAMIC EQUILIBRIUM PROPERTIES AT ASSIGNED

                           TEMPERATURE AND PRESSURE

 CASE =                

             REACTANT                       MOLES         ENERGY      TEMP
                                                         KJ/KG-MOL      K
 FUEL        CH3OH                        1.0000000   -200858.418    300.000
 OXIDANT     O2                           1.5000000        54.358    300.000
 OXIDANT     N2                           5.6429000        53.881    300.000

 O/F=    1.89160  %FUEL= 34.582961  R,EQ.RATIO= 2.125000  PHI,EQ.RATIO= 3.400000

 THERMODYNAMIC PROPERTIES

 P, BAR            1.0000
 T, K             2500.00
 RHO, KG/CU M    9.4949-2
 H, KJ/KG          598.63
 U, KJ/KG         -454.57
 G, KJ/KG        -32373.2
 S, KJ/(KG)(K)    13.1887

 M, (1/n)          19.736
 (dLV/dLP)t      -1.00373
 (dLV/dLT)p        1.0850
 Cp, KJ/(KG)(K)    2.8483
 GAMMAs            1.2054
 SON VEL,M/SEC     1126.7

 MOLE FRACTIONS

 *C              1.194-12
 *CH             7.257-13
 CH2             5.921-12
 CH3             6.332-11
 CH2OH           1.038-12
 CH3O            1.688-13
 CH4             7.152-11
 CH3OH           2.095-13
 *CN             4.758-10
 *CO             1.9268-1
 *CO2            2.0331-2
 COOH            3.8539-8
 C2H             5.147-16
 C2H2,acetylene  1.418-13
 C2H2,vinylidene 1.106-16
 CH2CO,ketene    4.162-13
 O(CH)2O         2.922-16
 OCCN            2.180-14
 C2N2            1.413-15
 C2O             3.644-13
 C3O2            5.688-16
 *H              1.2674-2
 HCN             1.6729-7
 HCO             3.4462-7
 HCCO            5.026-14
 HNC             1.7795-8
 HNCO            3.1097-8
 HNO             2.6434-8
 HNO2            2.078-10
 HNO3            2.812-16
 HO2             1.4778-8
 *H2             2.5323-1
 HCHO,formaldehy 1.9863-8
 HCOOH           1.1906-8
 H2O             1.6552-1
 H2O2            4.5653-9
 *N              1.7358-7
 NCO             9.979-10
 *NH             1.1528-7
 NH2             1.6143-7
 NH3             7.9372-7
 NH2OH           5.073-12
 *NO             1.3045-4
 NO2             9.910-10
 *N2             3.5347-1
 NCN             4.877-15
 N2H2            3.586-12
 N2H4            1.824-16
 N2O             4.8684-9
 N3              8.449-14
 N3H             6.644-14
 *O              5.6210-5
 *OH             1.8905-3
 *O2             1.5065-5
 O3              2.139-14

  * THERMODYNAMIC PROPERTIES FITTED TO 20000.K









               THERMODYNAMIC EQUILIBRIUM PROPERTIES AT ASSIGNED

                           TEMPERATURE AND PRESSURE

 CASE =                

             REACTANT                       MOLES         ENERGY      TEMP
                                                         KJ/KG-MOL      K
 FUEL        CH3OH                        1.0000000   -200858.418    300.000
 OXIDANT     O2                           1.5000000        54.358    300.000
 OXIDANT     N2                           5.6429000        53.881    300.000

 O/F=    1.83755  %FUEL= 35.241648  R,EQ.RATIO= 2.153846  PHI,EQ.RATIO= 3.500000

 THERMODYNAMIC PROPERTIES

 P, BAR            1.0000
 T, K             2500.00
 RHO, KG/CU M    9.4127-2
 H, KJ/KG          630.38
 U, KJ/KG         -432.01
 G, KJ/KG        -32560.5
 S, KJ/(KG)(K)    13.2764

 M, (1/n)          19.566
 (dLV/dLP)t      -1.00375
 (dLV/dLT)p        1.0855
 Cp, KJ/(KG)(K)    2.8718
 GAMMAs            1.2057
 SON VEL,M/SEC     1131.8

 MOLE FRACTIONS

 *C              1.267-12
 *CH             7.808-13
 CH2             6.459-12
 CH3             7.004-11
 CH2OH           1.098-12
 CH3O            1.785-13
 CH4             8.022-11
 CH3OH           2.247-13
 *CN             5.002-10
 *CO             1.9547-1
 *CO2            1.9720-2
 COOH            3.7902-8
 C2H             5.876-16
 C2H2,acetylene  1.641-13
 C2H2,vinylidene 1.280-16
 CH2CO,ketene    4.606-13
 O(CH)2O         3.092-16
 OCCN            2.324-14
 C2N2            1.562-15
 C2O             3.923-13
 C3O2            6.211-16
 *H              1.2850-2
 HCN             1.7830-7
 HCO             3.5449-7
 HCCO            5.486-14
 HNC             1.8967-8
 HNCO            3.1688-8
 HNO             2.5386-8
 HNO2            1.908-10
 HNO3            2.468-16
 HO2             1.3697-8
 *H2             2.6035-1
 HCHO,formaldehy 2.0717-8
 HCOOH           1.1872-8
 H2O             1.6269-1
 H2O2            4.2904-9
 *N              1.7196-7
 NCO             1.0029-9
 *NH             1.1579-7
 NH2             1.6441-7
 NH3             8.1968-7
 NH2OH           5.008-12
 *NO             1.2355-4
 NO2             8.974-10
 *N2             3.4689-1
 NCN             5.078-15
 N2H2            3.618-12
 N2H4            1.892-16
 N2O             4.5678-9
 N3              8.214-14
 N3H             6.549-14
 *O              5.3741-5
 *OH             1.8327-3
 *O2             1.3771-5
 O3              1.869-14

  * THERMODYNAMIC PROPERTIES FITTED TO 20000.K









               THERMODYNAMIC EQUILIBRIUM PROPERTIES AT ASSIGNED

                           TEMPERATURE AND PRESSURE

 CASE =                

             REACTANT                       MOLES         ENERGY      TEMP
                                                         KJ/KG-MOL      K
 FUEL        CH3OH                        1.0000000   -200858.418    300.000
 OXIDANT     O2                           1.5000000        54.358    300.000
 OXIDANT     N2                           5.6429000        53.881    300.000

 O/F=    1.78651  %FUEL= 35.887203  R,EQ.RATIO= 2.181818  PHI,EQ.RATIO= 3.600000

 THERMODYNAMIC PROPERTIES

 P, BAR            1.0000
 T, K             2500.00
 RHO, KG/CU M    9.3336-2
 H, KJ/KG          661.49
 U, KJ/KG         -409.91
 G, KJ/KG        -32743.7
 S, KJ/(KG)(K)    13.3621

 M, (1/n)          19.401
 (dLV/dLP)t      -1.00378
 (dLV/dLT)p        1.0859
 Cp, KJ/(KG)(K)    2.8950
 GAMMAs            1.2060
 SON VEL,M/SEC     1136.7

 MOLE FRACTIONS

 *C              1.340-12
 *CH             8.371-13
 CH2             7.016-12
 CH3             7.707-11
 CH2OH           1.157-12
 CH3O            1.881-13
 CH4             8.943-11
 CH3OH           2.399-13
 *CN             5.245-10
 *CO             1.9814-1
 *CO2            1.9147-2
 COOH            3.7284-8
 C2H             6.667-16
 C2H2,acetylene  1.887-13
 C2H2,vinylidene 1.471-16
 CH2CO,ketene    5.071-13
 O(CH)2O         3.261-16
 OCCN            2.470-14
 C2N2            1.717-15
 C2O             4.208-13
 C3O2            6.754-16
 *H              1.3019-2
 HCN             1.8941-7
 HCO             3.6405-7
 HCCO            5.962-14
 HNC             2.0148-8
 HNCO            3.2244-8
 HNO             2.4409-8
 HNO2            1.758-10
 HNO3            2.178-16
 HO2             1.2732-8
 *H2             2.6723-1
 HCHO,formaldehy 2.1555-8
 HCOOH           1.1832-8
 H2O             1.5996-1
 H2O2            4.0405-9
 *N              1.7038-7
 NCO             1.0072-9
 *NH             1.1623-7
 NH2             1.6720-7
 NH3             8.4454-7
 NH2OH           4.943-12
 *NO             1.1726-4
 NO2             8.158-10
 *N2             3.4054-1
 NCN             5.276-15
 N2H2            3.646-12
 N2H4            1.957-16
 N2O             4.2954-9
 N3              7.989-14
 N3H             6.454-14
 *O              5.1477-5
 *OH             1.7785-3
 *O2             1.2635-5
 O3              1.643-14

  * THERMODYNAMIC PROPERTIES FITTED TO 20000.K



