
 *******************************************************************************

         NASA-GLENN CHEMICAL EQUILIBRIUM PROGRAM CEA2, MAY 21, 2004
                   BY  BONNIE MCBRIDE AND SANFORD GORDON
      REFS: NASA RP-1311, PART I, 1994 AND NASA RP-1311, PART II, 1996

 *******************************************************************************



 problem    phi,eq.ratio=3.7,3.8,3.9,4,
       tp   t,k=2500,  p,bar=1,
 react
   fuel=CH3OH moles=1 t,k=300
   oxid=O2 moles=1.5 t,k=300
   oxid=N2 moles=5.6429 t,k=300
 output
      trace=1e-16 siunits short
 end




               THERMODYNAMIC EQUILIBRIUM PROPERTIES AT ASSIGNED

                           TEMPERATURE AND PRESSURE

 CASE =                

             REACTANT                       MOLES         ENERGY      TEMP
                                                         KJ/KG-MOL      K
 FUEL        CH3OH                        1.0000000   -200858.418    300.000
 OXIDANT     O2                           1.5000000        54.358    300.000
 OXIDANT     N2                           5.6429000        53.881    300.000

 O/F=    1.73822  %FUEL= 36.520013  R,EQ.RATIO= 2.208955  PHI,EQ.RATIO= 3.700000

 THERMODYNAMIC PROPERTIES

 P, BAR            1.0000
 T, K             2500.00
 RHO, KG/CU M    9.2572-2
 H, KJ/KG          691.98
 U, KJ/KG         -388.26
 G, KJ/KG        -32922.9
 S, KJ/(KG)(K)    13.4459

 M, (1/n)          19.242
 (dLV/dLP)t      -1.00380
 (dLV/dLT)p        1.0863
 Cp, KJ/(KG)(K)    2.9178
 GAMMAs            1.2062
 SON VEL,M/SEC     1141.5

 MOLE FRACTIONS

 *C              1.415-12
 *CH             8.946-13
 CH2             7.591-12
 CH3             8.442-11
 CH2OH           1.216-12
 CH3O            1.977-13
 CH4             9.916-11
 CH3OH           2.553-13
 *CN             5.486-10
 *CO             2.0071-1
 *CO2            1.8610-2
 COOH            3.6686-8
 C2H             7.521-16
 C2H2,acetylene  2.155-13
 C2H2,vinylidene 1.680-16
 CH2CO,ketene    5.557-13
 O(CH)2O         3.429-16
 OCCN            2.618-14
 C2N2            1.879-15
 C2O             4.499-13
 C3O2            7.315-16
 *H              1.3180-2
 HCN             2.0059-7
 HCO             3.7331-7
 HCCO            6.454-14
 HNC             2.1338-8
 HNCO            3.2766-8
 HNO             2.3497-8
 HNO2            1.623-10
 HNO3            1.930-16
 HO2             1.1868-8
 *H2             2.7387-1
 HCHO,formaldehy 2.2376-8
 HCOOH           1.1786-8
 H2O             1.5730-1
 H2O2            3.8127-9
 *N              1.6884-7
 NCO             1.0111-9
 *NH             1.1661-7
 NH2             1.6982-7
 NH3             8.6834-7
 NH2OH           4.877-12
 *NO             1.1150-4
 NO2             7.443-10
 *N2             3.3442-1
 NCN             5.469-15
 N2H2            3.669-12
 N2H4            2.019-16
 N2O             4.0475-9
 N3              7.775-14
 N3H             6.358-14
 *O              4.9394-5
 *OH             1.7276-3
 *O2             1.1633-5
 O3              1.451-14

  * THERMODYNAMIC PROPERTIES FITTED TO 20000.K









               THERMODYNAMIC EQUILIBRIUM PROPERTIES AT ASSIGNED

                           TEMPERATURE AND PRESSURE

 CASE =                

             REACTANT                       MOLES         ENERGY      TEMP
                                                         KJ/KG-MOL      K
 FUEL        CH3OH                        1.0000000   -200858.418    300.000
 OXIDANT     O2                           1.5000000        54.358    300.000
 OXIDANT     N2                           5.6429000        53.881    300.000

 O/F=    1.69248  %FUEL= 37.140454  R,EQ.RATIO= 2.235294  PHI,EQ.RATIO= 3.800000

 THERMODYNAMIC PROPERTIES

 P, BAR            1.0000
 T, K             2500.00
 RHO, KG/CU M    9.1836-2
 H, KJ/KG          721.86
 U, KJ/KG         -367.04
 G, KJ/KG        -33098.2
 S, KJ/(KG)(K)    13.5280

 M, (1/n)          19.089
 (dLV/dLP)t      -1.00382
 (dLV/dLT)p        1.0867
 Cp, KJ/(KG)(K)    2.9403
 GAMMAs            1.2064
 SON VEL,M/SEC     1146.2

 MOLE FRACTIONS

 *C              1.490-12
 *CH             9.532-13
 CH2             8.182-12
 CH3             9.206-11
 CH2OH           1.275-12
 CH3O            2.072-13
 CH4             1.094-10
 CH3OH           2.707-13
 *CN             5.727-10
 *CO             2.0316-1
 *CO2            1.8104-2
 COOH            3.6105-8
 C2H             8.441-16
 C2H2,acetylene  2.446-13
 C2H2,vinylidene 1.908-16
 CH2CO,ketene    6.064-13
 O(CH)2O         3.596-16
 OCCN            2.766-14
 C2N2            2.047-15
 C2O             4.797-13
 C3O2            7.895-16
 *H              1.3334-2
 HCN             2.1184-7
 HCO             3.8229-7
 HCCO            6.961-14
 HNC             2.2535-8
 HNCO            3.3257-8
 HNO             2.2643-8
 HNO2            1.504-10
 HNO3            1.718-16
 HO2             1.1090-8
 *H2             2.8030-1
 HCHO,formaldehy 2.3182-8
 HCOOH           1.1735-8
 H2O             1.5473-1
 H2O2            3.6042-9
 *N              1.6735-7
 NCO             1.0144-9
 *NH             1.1692-7
 NH2             1.7226-7
 NH3             8.9112-7
 NH2OH           4.810-12
 *NO             1.0621-4
 NO2             6.814-10
 *N2             3.2852-1
 NCN             5.659-15
 N2H2            3.689-12
 N2H4            2.077-16
 N2O             3.8213-9
 N3              7.570-14
 N3H             6.263-14
 *O              4.7471-5
 *OH             1.6798-3
 *O2             1.0745-5
 O3              1.288-14

  * THERMODYNAMIC PROPERTIES FITTED TO 20000.K









               THERMODYNAMIC EQUILIBRIUM PROPERTIES AT ASSIGNED

                           TEMPERATURE AND PRESSURE

 CASE =                

             REACTANT                       MOLES         ENERGY      TEMP
                                                         KJ/KG-MOL      K
 FUEL        CH3OH                        1.0000000   -200858.418    300.000
 OXIDANT     O2                           1.5000000        54.358    300.000
 OXIDANT     N2                           5.6429000        53.881    300.000

 O/F=    1.64908  %FUEL= 37.748885  R,EQ.RATIO= 2.260870  PHI,EQ.RATIO= 3.900000

 THERMODYNAMIC PROPERTIES

 P, BAR            1.0000
 T, K             2500.00
 RHO, KG/CU M    9.1125-2
 H, KJ/KG          751.16
 U, KJ/KG         -346.23
 G, KJ/KG        -33269.7
 S, KJ/(KG)(K)    13.6083

 M, (1/n)          18.942
 (dLV/dLP)t      -1.00384
 (dLV/dLT)p        1.0871
 Cp, KJ/(KG)(K)    2.9625
 GAMMAs            1.2066
 SON VEL,M/SEC     1150.7

 MOLE FRACTIONS

 *C              1.566-12
 *CH             1.013-12
 CH2             8.791-12
 CH3             *****-11
 CH2OH           1.333-12
 CH3O            2.166-13
 CH4             1.201-10
 CH3OH           2.861-13
 *CN             5.967-10
 *CO             2.0552-1
 *CO2            1.7628-2
 COOH            3.5543-8
 C2H             9.427-16
 C2H2,acetylene  2.763-13
 C2H2,vinylidene 2.154-16
 CH2CO,ketene    6.591-13
 O(CH)2O         3.762-16
 CH3CO,acetyl    1.069-16
 OCCN            2.915-14
 C2N2            2.223-15
 C2O             5.100-13
 C3O2            8.491-16
 *H              1.3481-2
 HCN             2.2315-7
 HCO             3.9100-7
 HCCO            7.483-14
 HNC             2.3737-8
 HNCO            3.3718-8
 HNO             2.1842-8
 HNO2            1.396-10
 HNO3            1.535-16
 HO2             1.0387-8
 *H2             2.8652-1
 HCHO,formaldehy 2.3971-8
 HCOOH           1.1680-8
 H2O             1.5223-1
 H2O2            3.4130-9
 *N              1.6589-7
 NCO             1.0172-9
 *NH             1.1718-7
 NH2             1.7455-7
 NH3             9.1292-7
 NH2OH           4.743-12
 *NO             1.0134-4
 NO2             6.257-10
 *N2             3.2283-1
 NCN             5.845-15
 N2H2            3.706-12
 N2H4            2.133-16
 N2O             3.6142-9
 N3              7.374-14
 N3H             6.168-14
 *O              4.5691-5
 *OH             1.6346-3
 *O2             9.9543-6
 O3              1.149-14

  * THERMODYNAMIC PROPERTIES FITTED TO 20000.K









               THERMODYNAMIC EQUILIBRIUM PROPERTIES AT ASSIGNED

                           TEMPERATURE AND PRESSURE

 CASE =                

             REACTANT                       MOLES         ENERGY      TEMP
                                                         KJ/KG-MOL      K
 FUEL        CH3OH                        1.0000000   -200858.418    300.000
 OXIDANT     O2                           1.5000000        54.358    300.000
 OXIDANT     N2                           5.6429000        53.881    300.000

 O/F=    1.60786  %FUEL= 38.345649  R,EQ.RATIO= 2.285714  PHI,EQ.RATIO= 4.000000

 THERMODYNAMIC PROPERTIES

 P, BAR            1.0000
 T, K             2500.00
 RHO, KG/CU M    9.0439-2
 H, KJ/KG          779.89
 U, KJ/KG         -325.83
 G, KJ/KG        -33437.6
 S, KJ/(KG)(K)    13.6870

 M, (1/n)          18.799
 (dLV/dLP)t      -1.00386
 (dLV/dLT)p        1.0875
 Cp, KJ/(KG)(K)    2.9843
 GAMMAs            1.2069
 SON VEL,M/SEC     1155.2

 MOLE FRACTIONS

 *C              1.643-12
 *CH             1.074-12
 CH2             9.415-12
 CH3             1.082-10
 CH2OH           1.390-12
 CH3O            2.260-13
 CH4             1.314-10
 CH3OH           3.015-13
 *CN             6.206-10
 *CO             2.0779-1
 *CO2            1.7178-2
 COOH            3.4997-8
 C2H             1.048-15
 C2H2,acetylene  3.104-13
 C2H2,vinylidene 2.420-16
 CH2CO,ketene    7.137-13
 O(CH)2O         3.926-16
 CH3CO,acetyl    1.170-16
 OCCN            3.066-14
 C2N2            2.404-15
 C2O             5.409-13
 C3O2            9.105-16
 *H              1.3622-2
 HCN             2.3450-7
 HCO             3.9945-7
 HCCO            8.019-14
 HNC             2.4945-8
 HNCO            3.4152-8
 HNO             2.1090-8
 HNO2            1.299-10
 HNO3            1.377-16
 HO2             9.7495-9
 *H2             2.9254-1
 HCHO,formaldehy 2.4745-8
 HCOOH           1.1621-8
 H2O             1.4980-1
 H2O2            3.2371-9
 *N              1.6447-7
 NCO             1.0197-9
 *NH             1.1739-7
 NH2             1.7669-7
 NH3             9.3376-7
 NH2OH           4.675-12
 *NO             9.6835-5
 NO2             5.763-10
 *N2             3.1733-1
 NCN             6.026-15
 N2H2            3.719-12
 N2H4            2.186-16
 N2O             3.4241-9
 N3              7.186-14
 N3H             6.074-14
 *O              4.4038-5
 *OH             1.5919-3
 *O2             9.2471-6
 O3              1.028-14

  * THERMODYNAMIC PROPERTIES FITTED TO 20000.K



