
 *******************************************************************************

         NASA-GLENN CHEMICAL EQUILIBRIUM PROGRAM CEA2, MAY 21, 2004
                   BY  BONNIE MCBRIDE AND SANFORD GORDON
      REFS: NASA RP-1311, PART I, 1994 AND NASA RP-1311, PART II, 1996

 *******************************************************************************



 problem    phi,eq.ratio=3.7,3.8,3.9,4,
       tp   t,k=2500,  p,bar=1,
 react
   fuel=CH3OH moles=1 t,k=300
   oxid=O2 moles=1.5 t,k=300
 output
      trace=1e-16 siunits short
 end




               THERMODYNAMIC EQUILIBRIUM PROPERTIES AT ASSIGNED

                           TEMPERATURE AND PRESSURE

 CASE =                

             REACTANT                       MOLES         ENERGY      TEMP
                                                         KJ/KG-MOL      K
 FUEL        CH3OH                        1.0000000   -200858.418    300.000
 OXIDANT     O2                           1.5000000        54.358    300.000

 O/F=    0.40486  %FUEL= 71.181440  R,EQ.RATIO= 2.208955  PHI,EQ.RATIO= 3.700000

 THERMODYNAMIC PROPERTIES

 P, BAR            1.0000
 T, K             2500.00
 RHO, KG/CU M    7.1520-2
 H, KJ/KG        -1238.64
 U, KJ/KG        -2636.84
 G, KJ/KG        -43308.7
 S, KJ/(KG)(K)    16.8280

 M, (1/n)          14.866
 (dLV/dLP)t      -1.00463
 (dLV/dLT)p        1.1048
 Cp, KJ/(KG)(K)    4.1168
 GAMMAs            1.1922
 SON VEL,M/SEC     1291.1

 MOLE FRACTIONS

 *C              2.132-12
 *CH             1.657-12
 CH2             1.728-11
 CH3             2.362-10
 CH2OH           3.402-12
 CH3O            5.529-13
 CH4             3.410-10
 CH3OH           8.775-13
 *CO             3.0224-1
 *CO2            2.8014-2
 COOH            6.7879-8
 C2H             2.098-15
 C2H2,acetylene  7.389-13
 C2H2,vinylidene 5.762-16
 CH2CO,ketene    1.905-12
 O(CH)2O         1.175-15
 CH3CO,acetyl    3.713-16
 C2H4            2.260-16
 C2O             1.021-12
 C3O2            2.499-15
 *H              1.6201-2
 HCO             6.9101-7
 HCCO            1.800-13
 HO2             1.4576-8
 *H2             4.1379-1
 HCHO,formaldehy 5.0911-8
 HCOOH           2.6806-8
 H2O             2.3757-1
 H2O2            5.7558-9
 *O              4.9374-5
 *OH             2.1227-3
 *O2             1.1624-5
 O3              1.449-14

  * THERMODYNAMIC PROPERTIES FITTED TO 20000.K









               THERMODYNAMIC EQUILIBRIUM PROPERTIES AT ASSIGNED

                           TEMPERATURE AND PRESSURE

 CASE =                

             REACTANT                       MOLES         ENERGY      TEMP
                                                         KJ/KG-MOL      K
 FUEL        CH3OH                        1.0000000   -200858.418    300.000
 OXIDANT     O2                           1.5000000        54.358    300.000

 O/F=    0.39421  %FUEL= 71.725393  R,EQ.RATIO= 2.235294  PHI,EQ.RATIO= 3.800000

 THERMODYNAMIC PROPERTIES

 P, BAR            1.0000
 T, K             2500.00
 RHO, KG/CU M    7.0976-2
 H, KJ/KG        -1144.58
 U, KJ/KG        -2553.50
 G, KJ/KG        -43436.2
 S, KJ/(KG)(K)    16.9167

 M, (1/n)          14.753
 (dLV/dLP)t      -1.00464
 (dLV/dLT)p        1.1049
 Cp, KJ/(KG)(K)    4.1380
 GAMMAs            1.1928
 SON VEL,M/SEC     1296.4

 MOLE FRACTIONS

 *C              2.225-12
 *CH             1.742-12
 CH2             1.830-11
 CH3             2.519-10
 CH2OH           3.487-12
 CH3O            5.667-13
 CH4             3.663-10
 CH3OH           9.059-13
 *CO             3.0324-1
 *CO2            2.7011-2
 COOH            6.5917-8
 C2H             2.303-15
 C2H2,acetylene  8.168-13
 C2H2,vinylidene 6.369-16
 CH2CO,ketene    2.024-12
 O(CH)2O         1.200-15
 CH3CO,acetyl    3.973-16
 C2H4            2.534-16
 C2O             1.069-12
 C3O2            2.626-15
 *H              1.6316-2
 HCO             6.9824-7
 HCCO            1.899-13
 HO2             1.3559-8
 *H2             4.1973-1
 HCHO,formaldehy 5.1812-8
 HCOOH           2.6217-8
 H2O             2.3159-1
 H2O2            5.3924-9
 *O              4.7451-5
 *OH             2.0546-3
 *O2             1.0736-5
 O3              1.287-14

  * THERMODYNAMIC PROPERTIES FITTED TO 20000.K









               THERMODYNAMIC EQUILIBRIUM PROPERTIES AT ASSIGNED

                           TEMPERATURE AND PRESSURE

 CASE =                

             REACTANT                       MOLES         ENERGY      TEMP
                                                         KJ/KG-MOL      K
 FUEL        CH3OH                        1.0000000   -200858.418    300.000
 OXIDANT     O2                           1.5000000        54.358    300.000

 O/F=    0.38410  %FUEL= 72.249193  R,EQ.RATIO= 2.260870  PHI,EQ.RATIO= 3.900000

 THERMODYNAMIC PROPERTIES

 P, BAR            1.0000
 T, K             2500.00
 RHO, KG/CU M    7.0460-2
 H, KJ/KG        -1054.03
 U, KJ/KG        -2473.27
 G, KJ/KG        -43558.7
 S, KJ/(KG)(K)    17.0018

 M, (1/n)          14.646
 (dLV/dLP)t      -1.00465
 (dLV/dLT)p        1.1050
 Cp, KJ/(KG)(K)    4.1586
 GAMMAs            1.1934
 SON VEL,M/SEC     1301.4

 MOLE FRACTIONS

 *C              2.319-12
 *CH             1.827-12
 CH2             1.932-11
 CH3             2.678-10
 CH2OH           3.568-12
 CH3O            5.800-13
 CH4             3.921-10
 CH3OH           9.333-13
 *CO             3.0417-1
 *CO2            2.6077-2
 COOH            6.4065-8
 C2H             2.518-15
 C2H2,acetylene  8.991-13
 C2H2,vinylidene 7.011-16
 CH2CO,ketene    2.144-12
 O(CH)2O         1.223-15
 CH3CO,acetyl    4.238-16
 C2H4            2.827-16
 C2O             1.118-12
 C3O2            2.754-15
 *H              1.6426-2
 HCO             7.0508-7
 HCCO            1.998-13
 HO2             1.2644-8
 *H2             4.2538-1
 HCHO,formaldehy 5.2670-8
 HCOOH           2.5651-8
 H2O             2.2590-1
 H2O2            5.0626-9
 *O              4.5670-5
 *OH             1.9908-3
 *O2             9.9453-6
 O3              1.147-14

  * THERMODYNAMIC PROPERTIES FITTED TO 20000.K









               THERMODYNAMIC EQUILIBRIUM PROPERTIES AT ASSIGNED

                           TEMPERATURE AND PRESSURE

 CASE =                

             REACTANT                       MOLES         ENERGY      TEMP
                                                         KJ/KG-MOL      K
 FUEL        CH3OH                        1.0000000   -200858.418    300.000
 OXIDANT     O2                           1.5000000        54.358    300.000

 O/F=    0.37450  %FUEL= 72.753938  R,EQ.RATIO= 2.285714  PHI,EQ.RATIO= 4.000000

 THERMODYNAMIC PROPERTIES

 P, BAR            1.0000
 T, K             2500.00
 RHO, KG/CU M    6.9970-2
 H, KJ/KG         -966.78
 U, KJ/KG        -2395.96
 G, KJ/KG        -43676.3
 S, KJ/(KG)(K)    17.0838

 M, (1/n)          14.544
 (dLV/dLP)t      -1.00466
 (dLV/dLT)p        1.1051
 Cp, KJ/(KG)(K)    4.1785
 GAMMAs            1.1939
 SON VEL,M/SEC     1306.3

 MOLE FRACTIONS

 *C              2.413-12
 *CH             1.913-12
 CH2             2.036-11
 CH3             2.840-10
 CH2OH           3.647-12
 CH3O            5.927-13
 CH4             4.184-10
 CH3OH           9.598-13
 *CO             3.0503-1
 *CO2            2.5205-2
 COOH            6.2312-8
 C2H             2.744-15
 C2H2,acetylene  9.858-13
 C2H2,vinylidene 7.687-16
 CH2CO,ketene    2.266-12
 O(CH)2O         1.246-15
 C2H3,vinyl      1.000-16
 CH3CO,acetyl    4.506-16
 C2H4            3.139-16
 C2O             1.166-12
 C3O2            2.882-15
 *H              1.6530-2
 HCO             7.1155-7
 HCCO            2.098-13
 HO2             1.1820-8
 *H2             4.3077-1
 HCHO,formaldehy 5.3489-8
 HCOOH           2.5107-8
 H2O             2.2048-1
 H2O2            4.7622-9
 *O              4.4017-5
 *OH             1.9308-3
 *O2             9.2384-6
 O3              1.027-14

  * THERMODYNAMIC PROPERTIES FITTED TO 20000.K



