
 *******************************************************************************

         NASA-GLENN CHEMICAL EQUILIBRIUM PROGRAM CEA2, MAY 21, 2004
                   BY  BONNIE MCBRIDE AND SANFORD GORDON
      REFS: NASA RP-1311, PART I, 1994 AND NASA RP-1311, PART II, 1996

 *******************************************************************************



 problem    phi,eq.ratio=2.1,2.2,2.3,2.4,2.5,2.6,2.7,2.8,2.9,3,3.1,3.2,3.3,3.4,3.
 5,3.6,
       tp   t,k=2500,  p,bar=1,
 react
   fuel=CH3OH moles=1 t,k=300
   oxid=O2 moles=1.5 t,k=300
 output
      trace=1e-16 siunits short
 end




               THERMODYNAMIC EQUILIBRIUM PROPERTIES AT ASSIGNED

                           TEMPERATURE AND PRESSURE

 CASE =                

             REACTANT                       MOLES         ENERGY      TEMP
                                                         KJ/KG-MOL      K
 FUEL        CH3OH                        1.0000000   -200858.418    300.000
 OXIDANT     O2                           1.5000000        54.358    300.000

 O/F=    0.71333  %FUEL= 58.366015  R,EQ.RATIO= 1.647059  PHI,EQ.RATIO= 2.100000

 THERMODYNAMIC PROPERTIES

 P, BAR            1.0000
 T, K             2500.00
 RHO, KG/CU M    8.7258-2
 H, KJ/KG        -3460.33
 U, KJ/KG        -4606.36
 G, KJ/KG        -40178.2
 S, KJ/(KG)(K)    14.6872

 M, (1/n)          18.138
 (dLV/dLP)t      -1.00452
 (dLV/dLT)p        1.1063
 Cp, KJ/(KG)(K)    3.6751
 GAMMAs            1.1739
 SON VEL,M/SEC     1159.9

 MOLE FRACTIONS

 *C              6.724-13
 *CH             4.081-13
 CH2             3.324-12
 CH3             3.548-11
 CH2OH           1.410-12
 CH3O            2.292-13
 CH4             4.001-11
 CH3OH           2.841-13
 *CO             2.6310-1
 *CO2            6.7290-2
 COOH            1.2733-7
 C2H             1.631-16
 C2H2,acetylene  4.484-14
 CH2CO,ketene    3.190-13
 O(CH)2O         5.429-16
 C2O             2.803-13
 C3O2            5.974-16
 *H              1.2652-2
 HCO             4.6974-7
 HCCO            3.859-14
 HO2             8.6675-8
 *H2             2.5236-1
 HCHO,formaldehy 2.7028-8
 HCOOH           3.9268-8
 H2O             3.9980-1
 H2O2            2.6729-8
 *O              1.3625-4
 *OH             4.5744-3
 *O2             8.8511-5
 O3              3.045-13

  * THERMODYNAMIC PROPERTIES FITTED TO 20000.K









               THERMODYNAMIC EQUILIBRIUM PROPERTIES AT ASSIGNED

                           TEMPERATURE AND PRESSURE

 CASE =                

             REACTANT                       MOLES         ENERGY      TEMP
                                                         KJ/KG-MOL      K
 FUEL        CH3OH                        1.0000000   -200858.418    300.000
 OXIDANT     O2                           1.5000000        54.358    300.000

 O/F=    0.68090  %FUEL= 59.491871  R,EQ.RATIO= 1.692308  PHI,EQ.RATIO= 2.200000

 THERMODYNAMIC PROPERTIES

 P, BAR            1.0000
 T, K             2500.00
 RHO, KG/CU M    8.5606-2
 H, KJ/KG        -3264.67
 U, KJ/KG        -4432.82
 G, KJ/KG        -40464.3
 S, KJ/(KG)(K)    14.8799

 M, (1/n)          17.794
 (dLV/dLP)t      -1.00451
 (dLV/dLT)p        1.1056
 Cp, KJ/(KG)(K)    3.7060
 GAMMAs            1.1759
 SON VEL,M/SEC     1172.0

 MOLE FRACTIONS

 *C              7.589-13
 *CH             4.747-13
 CH2             3.986-12
 CH3             4.386-11
 CH2OH           1.576-12
 CH3O            2.561-13
 CH4             5.098-11
 CH3OH           3.272-13
 *CO             2.6835-1
 *CO2            6.2031-2
 COOH            1.2100-7
 C2H             2.141-16
 C2H2,acetylene  6.069-14
 CH2CO,ketene    3.902-13
 O(CH)2O         6.002-16
 C2O             3.226-13
 C3O2            7.014-16
 *H              1.3042-2
 HCO             4.9389-7
 HCCO            4.579-14
 HO2             7.2984-8
 *H2             2.6815-1
 HCHO,formaldehy 2.9293-8
 HCOOH           3.8466-8
 H2O             3.8396-1
 H2O2            2.3201-8
 *O              1.2314-4
 *OH             4.2618-3
 *O2             7.2301-5
 O3              2.248-13

  * THERMODYNAMIC PROPERTIES FITTED TO 20000.K









               THERMODYNAMIC EQUILIBRIUM PROPERTIES AT ASSIGNED

                           TEMPERATURE AND PRESSURE

 CASE =                

             REACTANT                       MOLES         ENERGY      TEMP
                                                         KJ/KG-MOL      K
 FUEL        CH3OH                        1.0000000   -200858.418    300.000
 OXIDANT     O2                           1.5000000        54.358    300.000

 O/F=    0.65130  %FUEL= 60.558440  R,EQ.RATIO= 1.735849  PHI,EQ.RATIO= 2.300000

 THERMODYNAMIC PROPERTIES

 P, BAR            1.0000
 T, K             2500.00
 RHO, KG/CU M    8.4097-2
 H, KJ/KG        -3079.40
 U, KJ/KG        -4268.51
 G, KJ/KG        -40733.1
 S, KJ/(KG)(K)    15.0615

 M, (1/n)          17.481
 (dLV/dLP)t      -1.00451
 (dLV/dLT)p        1.1050
 Cp, KJ/(KG)(K)    3.7375
 GAMMAs            1.1777
 SON VEL,M/SEC     1183.4

 MOLE FRACTIONS

 *C              8.465-13
 *CH             5.439-13
 CH2             4.690-12
 CH3             5.301-11
 CH2OH           1.736-12
 CH3O            2.821-13
 CH4             6.328-11
 CH3OH           3.702-13
 *CO             2.7288-1
 *CO2            5.7500-2
 COOH            1.1519-7
 C2H             2.736-16
 C2H2,acetylene  7.965-14
 CH2CO,ketene    4.669-13
 O(CH)2O         6.546-16
 C2O             3.660-13
 C3O2            8.090-16
 *H              1.3394-2
 HCO             5.1581-7
 HCCO            5.335-14
 HO2             6.2288-8
 *H2             2.8286-1
 HCHO,formaldehy 3.1420-8
 HCOOH           3.7611-8
 H2O             3.6921-1
 H2O2            2.0336-8
 *O              1.1225-4
 *OH             3.9900-3
 *O2             6.0080-5
 O3              1.703-13

  * THERMODYNAMIC PROPERTIES FITTED TO 20000.K









               THERMODYNAMIC EQUILIBRIUM PROPERTIES AT ASSIGNED

                           TEMPERATURE AND PRESSURE

 CASE =                

             REACTANT                       MOLES         ENERGY      TEMP
                                                         KJ/KG-MOL      K
 FUEL        CH3OH                        1.0000000   -200858.418    300.000
 OXIDANT     O2                           1.5000000        54.358    300.000

 O/F=    0.62416  %FUEL= 61.570285  R,EQ.RATIO= 1.777778  PHI,EQ.RATIO= 2.400000

 THERMODYNAMIC PROPERTIES

 P, BAR            1.0000
 T, K             2500.00
 RHO, KG/CU M    8.2713-2
 H, KJ/KG        -2903.70
 U, KJ/KG        -4112.71
 G, KJ/KG        -40986.2
 S, KJ/(KG)(K)    15.2330

 M, (1/n)          17.193
 (dLV/dLP)t      -1.00451
 (dLV/dLT)p        1.1047
 Cp, KJ/(KG)(K)    3.7690
 GAMMAs            1.1793
 SON VEL,M/SEC     1194.1

 MOLE FRACTIONS

 *C              9.352-13
 *CH             6.152-13
 CH2             5.432-12
 CH3             6.287-11
 CH2OH           1.890-12
 CH3O            3.073-13
 CH4             7.685-11
 CH3OH           4.128-13
 *CO             2.7681-1
 *CO2            5.3560-2
 COOH            1.0987-7
 C2H             3.419-16
 C2H2,acetylene  1.019-13
 CH2CO,ketene    5.485-13
 O(CH)2O         7.063-16
 C2O             4.101-13
 C3O2            9.196-16
 *H              1.3715-2
 HCO             5.3576-7
 HCCO            6.122-14
 HO2             5.3778-8
 *H2             2.9656-1
 HCHO,formaldehy 3.3417-8
 HCOOH           3.6731-8
 H2O             3.5545-1
 H2O2            1.7978-8
 *O              1.0307-4
 *OH             3.7516-3
 *O2             5.0659-5
 O3              1.319-13

  * THERMODYNAMIC PROPERTIES FITTED TO 20000.K









               THERMODYNAMIC EQUILIBRIUM PROPERTIES AT ASSIGNED

                           TEMPERATURE AND PRESSURE

 CASE =                

             REACTANT                       MOLES         ENERGY      TEMP
                                                         KJ/KG-MOL      K
 FUEL        CH3OH                        1.0000000   -200858.418    300.000
 OXIDANT     O2                           1.5000000        54.358    300.000

 O/F=    0.59919  %FUEL= 62.531513  R,EQ.RATIO= 1.818182  PHI,EQ.RATIO= 2.500000

 THERMODYNAMIC PROPERTIES

 P, BAR            1.0000
 T, K             2500.00
 RHO, KG/CU M    8.1439-2
 H, KJ/KG        -2736.87
 U, KJ/KG        -3964.78
 G, KJ/KG        -41224.9
 S, KJ/(KG)(K)    15.3952

 M, (1/n)          16.928
 (dLV/dLP)t      -1.00452
 (dLV/dLT)p        1.1045
 Cp, KJ/(KG)(K)    3.8003
 GAMMAs            1.1808
 SON VEL,M/SEC     1204.1

 MOLE FRACTIONS

 *C              1.025-12
 *CH             6.885-13
 CH2             6.209-12
 CH3             7.338-11
 CH2OH           2.039-12
 CH3O            3.314-13
 CH4             9.161-11
 CH3OH           4.548-13
 *CO             2.8025-1
 *CO2            5.0108-2
 COOH            1.0498-7
 C2H             4.192-16
 C2H2,acetylene  1.276-13
 CH2CO,ketene    6.347-13
 O(CH)2O         7.552-16
 CH3CO,acetyl    1.070-16
 C2O             4.550-13
 C3O2            1.033-15
 *H              1.4008-2
 HCO             5.5400-7
 HCCO            6.936-14
 HO2             4.6897-8
 *H2             3.0935-1
 HCHO,formaldehy 3.5292-8
 HCOOH           3.5845-8
 H2O             3.4261-1
 H2O2            1.6012-8
 *O              9.5244-5
 *OH             3.5405-3
 *O2             4.3255-5
 O3              1.040-13

  * THERMODYNAMIC PROPERTIES FITTED TO 20000.K









               THERMODYNAMIC EQUILIBRIUM PROPERTIES AT ASSIGNED

                           TEMPERATURE AND PRESSURE

 CASE =                

             REACTANT                       MOLES         ENERGY      TEMP
                                                         KJ/KG-MOL      K
 FUEL        CH3OH                        1.0000000   -200858.418    300.000
 OXIDANT     O2                           1.5000000        54.358    300.000

 O/F=    0.57615  %FUEL= 63.445828  R,EQ.RATIO= 1.857143  PHI,EQ.RATIO= 2.600000

 THERMODYNAMIC PROPERTIES

 P, BAR            1.0000
 T, K             2500.00
 RHO, KG/CU M    8.0263-2
 H, KJ/KG        -2578.24
 U, KJ/KG        -3824.14
 G, KJ/KG        -41450.6
 S, KJ/(KG)(K)    15.5489

 M, (1/n)          16.684
 (dLV/dLP)t      -1.00452
 (dLV/dLT)p        1.1043
 Cp, KJ/(KG)(K)    3.8310
 GAMMAs            1.1822
 SON VEL,M/SEC     1213.6

 MOLE FRACTIONS

 *C              1.115-12
 *CH             7.634-13
 CH2             7.016-12
 CH3             8.451-11
 CH2OH           2.182-12
 CH3O            3.546-13
 CH4             1.075-10
 CH3OH           4.959-13
 *CO             2.8329-1
 *CO2            4.7059-2
 COOH            1.0048-7
 C2H             5.057-16
 C2H2,acetylene  1.569-13
 C2H2,vinylidene 1.224-16
 CH2CO,ketene    7.250-13
 O(CH)2O         8.014-16
 CH3CO,acetyl    1.245-16
 C2O             5.004-13
 C3O2            1.148-15
 *H              1.4275-2
 HCO             5.7072-7
 HCCO            7.774-14
 HO2             4.1256-8
 *H2             3.2129-1
 HCHO,formaldehy 3.7052-8
 HCOOH           3.4964-8
 H2O             3.3060-1
 H2O2            1.4356-8
 *O              8.8491-5
 *OH             3.3524-3
 *O2             3.7338-5
 O3              8.344-14

  * THERMODYNAMIC PROPERTIES FITTED TO 20000.K









               THERMODYNAMIC EQUILIBRIUM PROPERTIES AT ASSIGNED

                           TEMPERATURE AND PRESSURE

 CASE =                

             REACTANT                       MOLES         ENERGY      TEMP
                                                         KJ/KG-MOL      K
 FUEL        CH3OH                        1.0000000   -200858.418    300.000
 OXIDANT     O2                           1.5000000        54.358    300.000

 O/F=    0.55481  %FUEL= 64.316583  R,EQ.RATIO= 1.894737  PHI,EQ.RATIO= 2.700000

 THERMODYNAMIC PROPERTIES

 P, BAR            1.0000
 T, K             2500.00
 RHO, KG/CU M    7.9174-2
 H, KJ/KG        -2427.24
 U, KJ/KG        -3690.27
 G, KJ/KG        -41664.2
 S, KJ/(KG)(K)    15.6948

 M, (1/n)          16.457
 (dLV/dLP)t      -1.00453
 (dLV/dLT)p        1.1042
 Cp, KJ/(KG)(K)    3.8611
 GAMMAs            1.1835
 SON VEL,M/SEC     1222.6

 MOLE FRACTIONS

 *C              1.206-12
 *CH             8.398-13
 CH2             7.851-12
 CH3             9.620-11
 CH2OH           2.318-12
 CH3O            3.768-13
 CH4             1.245-10
 CH3OH           5.360-13
 *CO             2.8599-1
 *CO2            4.4350-2
 COOH            9.6327-8
 C2H             6.015-16
 C2H2,acetylene  1.899-13
 C2H2,vinylidene 1.481-16
 CH2CO,ketene    8.190-13
 O(CH)2O         8.452-16
 CH3CO,acetyl    1.431-16
 C2O             5.463-13
 C3O2            1.265-15
 *H              1.4522-2
 HCO             5.8609-7
 HCCO            8.633-14
 HO2             3.6575-8
 *H2             3.3247-1
 HCHO,formaldehy 3.8706-8
 HCOOH           3.4098-8
 H2O             3.1937-1
 H2O2            1.2946-8
 *O              8.2610-5
 *OH             3.1835-3
 *O2             3.2540-5
 O3              6.788-14

  * THERMODYNAMIC PROPERTIES FITTED TO 20000.K









               THERMODYNAMIC EQUILIBRIUM PROPERTIES AT ASSIGNED

                           TEMPERATURE AND PRESSURE

 CASE =                

             REACTANT                       MOLES         ENERGY      TEMP
                                                         KJ/KG-MOL      K
 FUEL        CH3OH                        1.0000000   -200858.418    300.000
 OXIDANT     O2                           1.5000000        54.358    300.000

 O/F=    0.53499  %FUEL= 65.146819  R,EQ.RATIO= 1.931034  PHI,EQ.RATIO= 2.800000

 THERMODYNAMIC PROPERTIES

 P, BAR            1.0000
 T, K             2500.00
 RHO, KG/CU M    7.8163-2
 H, KJ/KG        -2283.31
 U, KJ/KG        -3562.69
 G, KJ/KG        -41866.8
 S, KJ/(KG)(K)    15.8334

 M, (1/n)          16.247
 (dLV/dLP)t      -1.00454
 (dLV/dLT)p        1.1042
 Cp, KJ/(KG)(K)    3.8904
 GAMMAs            1.1846
 SON VEL,M/SEC     1231.1

 MOLE FRACTIONS

 *C              1.297-12
 *CH             9.174-13
 CH2             8.711-12
 CH3             1.084-10
 CH2OH           2.449-12
 CH3O            3.981-13
 CH4             1.425-10
 CH3OH           5.752-13
 *CO             2.8841-1
 *CO2            4.1928-2
 COOH            9.2490-8
 C2H             7.069-16
 C2H2,acetylene  2.266-13
 C2H2,vinylidene 1.767-16
 CH2CO,ketene    9.165-13
 O(CH)2O         8.866-16
 CH3CO,acetyl    1.626-16
 C2O             5.926-13
 C3O2            1.384-15
 *H              1.4749-2
 HCO             6.0027-7
 HCCO            9.511-14
 HO2             3.2647-8
 *H2             3.4294-1
 HCHO,formaldehy 4.0263-8
 HCOOH           3.3251-8
 H2O             3.0884-1
 H2O2            1.1737-8
 *O              7.7445-5
 *OH             3.0312-3
 *O2             2.8599-5
 O3              5.593-14

  * THERMODYNAMIC PROPERTIES FITTED TO 20000.K









               THERMODYNAMIC EQUILIBRIUM PROPERTIES AT ASSIGNED

                           TEMPERATURE AND PRESSURE

 CASE =                

             REACTANT                       MOLES         ENERGY      TEMP
                                                         KJ/KG-MOL      K
 FUEL        CH3OH                        1.0000000   -200858.418    300.000
 OXIDANT     O2                           1.5000000        54.358    300.000

 O/F=    0.51655  %FUEL= 65.939300  R,EQ.RATIO= 1.966102  PHI,EQ.RATIO= 2.900000

 THERMODYNAMIC PROPERTIES

 P, BAR            1.0000
 T, K             2500.00
 RHO, KG/CU M    7.7222-2
 H, KJ/KG        -2145.98
 U, KJ/KG        -3440.95
 G, KJ/KG        -42059.2
 S, KJ/(KG)(K)    15.9653

 M, (1/n)          16.051
 (dLV/dLP)t      -1.00455
 (dLV/dLT)p        1.1042
 Cp, KJ/(KG)(K)    3.9189
 GAMMAs            1.1857
 SON VEL,M/SEC     1239.1

 MOLE FRACTIONS

 *C              1.388-12
 *CH             9.963-13
 CH2             9.594-12
 CH3             1.211-10
 CH2OH           2.574-12
 CH3O            4.185-13
 CH4             1.614-10
 CH3OH           6.132-13
 *CO             2.9057-1
 *CO2            3.9751-2
 COOH            8.8936-8
 C2H             8.219-16
 C2H2,acetylene  2.673-13
 C2H2,vinylidene 2.084-16
 CH2CO,ketene    1.017-12
 O(CH)2O         9.258-16
 CH3CO,acetyl    1.830-16
 C2O             6.392-13
 C3O2            1.505-15
 *H              1.4959-2
 HCO             6.1339-7
 HCCO            1.041-13
 HO2             2.9320-8
 *H2             3.5278-1
 HCHO,formaldehy 4.1728-8
 HCOOH           3.2429-8
 H2O             2.9895-1
 H2O2            1.0691-8
 *O              7.2876-5
 *OH             2.8929-3
 *O2             2.5324-5
 O3              4.661-14

  * THERMODYNAMIC PROPERTIES FITTED TO 20000.K









               THERMODYNAMIC EQUILIBRIUM PROPERTIES AT ASSIGNED

                           TEMPERATURE AND PRESSURE

 CASE =                

             REACTANT                       MOLES         ENERGY      TEMP
                                                         KJ/KG-MOL      K
 FUEL        CH3OH                        1.0000000   -200858.418    300.000
 OXIDANT     O2                           1.5000000        54.358    300.000

 O/F=    0.49933  %FUEL= 66.696544  R,EQ.RATIO= 2.000000  PHI,EQ.RATIO= 3.000000

 THERMODYNAMIC PROPERTIES

 P, BAR            1.0000
 T, K             2500.00
 RHO, KG/CU M    7.6343-2
 H, KJ/KG        -2014.80
 U, KJ/KG        -3324.68
 G, KJ/KG        -42242.1
 S, KJ/(KG)(K)    16.0909

 M, (1/n)          15.869
 (dLV/dLP)t      -1.00456
 (dLV/dLT)p        1.1042
 Cp, KJ/(KG)(K)    3.9465
 GAMMAs            1.1867
 SON VEL,M/SEC     1246.8

 MOLE FRACTIONS

 *C              1.480-12
 *CH             1.076-12
 CH2             1.050-11
 CH3             1.342-10
 CH2OH           2.694-12
 CH3O            4.379-13
 CH4             1.813-10
 CH3OH           6.501-13
 *CO             2.9253-1
 *CO2            3.7784-2
 COOH            8.5636-8
 C2H             9.467-16
 C2H2,acetylene  3.118-13
 C2H2,vinylidene 2.431-16
 CH2CO,ketene    1.120-12
 O(CH)2O         9.629-16
 CH3CO,acetyl    2.043-16
 C2O             6.862-13
 C3O2            1.626-15
 *H              1.5153-2
 HCO             6.2557-7
 HCCO            1.132-13
 HO2             2.6477-8
 *H2             3.6202-1
 HCHO,formaldehy 4.3110-8
 HCOOH           3.1632-8
 H2O             2.8965-1
 H2O2            9.7797-9
 *O              6.8807-5
 *OH             2.7669-3
 *O2             2.2574-5
 O3              3.923-14

  * THERMODYNAMIC PROPERTIES FITTED TO 20000.K









               THERMODYNAMIC EQUILIBRIUM PROPERTIES AT ASSIGNED

                           TEMPERATURE AND PRESSURE

 CASE =                

             REACTANT                       MOLES         ENERGY      TEMP
                                                         KJ/KG-MOL      K
 FUEL        CH3OH                        1.0000000   -200858.418    300.000
 OXIDANT     O2                           1.5000000        54.358    300.000

 O/F=    0.48322  %FUEL= 67.420849  R,EQ.RATIO= 2.032787  PHI,EQ.RATIO= 3.100000

 THERMODYNAMIC PROPERTIES

 P, BAR            1.0000
 T, K             2500.00
 RHO, KG/CU M    7.5521-2
 H, KJ/KG        -1889.36
 U, KJ/KG        -3213.50
 G, KJ/KG        -42416.3
 S, KJ/(KG)(K)    16.2108

 M, (1/n)          15.698
 (dLV/dLP)t      -1.00457
 (dLV/dLT)p        1.1043
 Cp, KJ/(KG)(K)    3.9733
 GAMMAs            1.1876
 SON VEL,M/SEC     1254.0

 MOLE FRACTIONS

 *C              1.573-12
 *CH             1.157-12
 CH2             1.142-11
 CH3             1.478-10
 CH2OH           2.809-12
 CH3O            4.566-13
 CH4             2.020-10
 CH3OH           6.859-13
 *CO             2.9431-1
 *CO2            3.5999-2
 COOH            8.2565-8
 C2H             1.081-15
 C2H2,acetylene  3.604-13
 C2H2,vinylidene 2.810-16
 CH2CO,ketene    1.226-12
 O(CH)2O         9.980-16
 CH3CO,acetyl    2.262-16
 C2O             7.334-13
 C3O2            1.748-15
 *H              1.5334-2
 HCO             6.3689-7
 HCCO            1.224-13
 HO2             2.4029-8
 *H2             3.7073-1
 HCHO,formaldehy 4.4415-8
 HCOOH           3.0862-8
 H2O             2.8090-1
 H2O2            8.9814-9
 *O              6.5160-5
 *OH             2.6516-3
 *O2             2.0245-5
 O3              3.331-14

  * THERMODYNAMIC PROPERTIES FITTED TO 20000.K









               THERMODYNAMIC EQUILIBRIUM PROPERTIES AT ASSIGNED

                           TEMPERATURE AND PRESSURE

 CASE =                

             REACTANT                       MOLES         ENERGY      TEMP
                                                         KJ/KG-MOL      K
 FUEL        CH3OH                        1.0000000   -200858.418    300.000
 OXIDANT     O2                           1.5000000        54.358    300.000

 O/F=    0.46812  %FUEL= 68.114320  R,EQ.RATIO= 2.064516  PHI,EQ.RATIO= 3.200000

 THERMODYNAMIC PROPERTIES

 P, BAR            1.0000
 T, K             2500.00
 RHO, KG/CU M    7.4750-2
 H, KJ/KG        -1769.30
 U, KJ/KG        -3107.10
 G, KJ/KG        -42582.3
 S, KJ/(KG)(K)    16.3252

 M, (1/n)          15.538
 (dLV/dLP)t      -1.00458
 (dLV/dLT)p        1.1044
 Cp, KJ/(KG)(K)    3.9992
 GAMMAs            1.1885
 SON VEL,M/SEC     1260.9

 MOLE FRACTIONS

 *C              1.665-12
 *CH             1.239-12
 CH2             1.236-11
 CH3             1.617-10
 CH2OH           2.919-12
 CH3O            4.744-13
 CH4             2.234-10
 CH3OH           7.205-13
 *CO             2.9593-1
 *CO2            3.4372-2
 COOH            7.9701-8
 C2H             1.226-15
 C2H2,acetylene  4.130-13
 C2H2,vinylidene 3.221-16
 CH2CO,ketene    1.334-12
 O(CH)2O         1.031-15
 CH3CO,acetyl    2.489-16
 C2H4            1.157-16
 C2O             7.808-13
 C3O2            1.872-15
 *H              1.5503-2
 HCO             6.4744-7
 HCCO            1.317-13
 HO2             2.1905-8
 *H2             3.7893-1
 HCHO,formaldehy 4.5648-8
 HCOOH           3.0120-8
 H2O             2.7264-1
 H2O2            8.2779-9
 *O              6.1875-5
 *OH             2.5457-3
 *O2             1.8255-5
 O3              2.852-14

  * THERMODYNAMIC PROPERTIES FITTED TO 20000.K









               THERMODYNAMIC EQUILIBRIUM PROPERTIES AT ASSIGNED

                           TEMPERATURE AND PRESSURE

 CASE =                

             REACTANT                       MOLES         ENERGY      TEMP
                                                         KJ/KG-MOL      K
 FUEL        CH3OH                        1.0000000   -200858.418    300.000
 OXIDANT     O2                           1.5000000        54.358    300.000

 O/F=    0.45393  %FUEL= 68.778884  R,EQ.RATIO= 2.095238  PHI,EQ.RATIO= 3.300000

 THERMODYNAMIC PROPERTIES

 P, BAR            1.0000
 T, K             2500.00
 RHO, KG/CU M    7.4026-2
 H, KJ/KG        -1654.27
 U, KJ/KG        -3005.15
 G, KJ/KG        -42740.8
 S, KJ/(KG)(K)    16.4346

 M, (1/n)          15.387
 (dLV/dLP)t      -1.00459
 (dLV/dLT)p        1.1044
 Cp, KJ/(KG)(K)    4.0243
 GAMMAs            1.1893
 SON VEL,M/SEC     1267.5

 MOLE FRACTIONS

 *C              1.758-12
 *CH             1.321-12
 CH2             1.332-11
 CH3             1.760-10
 CH2OH           3.024-12
 CH3O            4.915-13
 CH4             2.456-10
 CH3OH           7.541-13
 *CO             2.9741-1
 *CO2            3.2883-2
 COOH            7.7025-8
 C2H             1.380-15
 C2H2,acetylene  4.698-13
 C2H2,vinylidene 3.663-16
 CH2CO,ketene    1.445-12
 O(CH)2O         1.063-15
 CH3CO,acetyl    2.723-16
 C2H4            1.343-16
 C2O             8.285-13
 C3O2            1.996-15
 *H              1.5661-2
 HCO             6.5730-7
 HCCO            1.412-13
 HO2             2.0052-8
 *H2             3.8669-1
 HCHO,formaldehy 4.6815-8
 HCOOH           2.9404-8
 H2O             2.6484-1
 H2O2            7.6545-9
 *O              5.8900-5
 *OH             2.4479-3
 *O2             1.6542-5
 O3              2.461-14

  * THERMODYNAMIC PROPERTIES FITTED TO 20000.K









               THERMODYNAMIC EQUILIBRIUM PROPERTIES AT ASSIGNED

                           TEMPERATURE AND PRESSURE

 CASE =                

             REACTANT                       MOLES         ENERGY      TEMP
                                                         KJ/KG-MOL      K
 FUEL        CH3OH                        1.0000000   -200858.418    300.000
 OXIDANT     O2                           1.5000000        54.358    300.000

 O/F=    0.44058  %FUEL= 69.416312  R,EQ.RATIO= 2.125000  PHI,EQ.RATIO= 3.400000

 THERMODYNAMIC PROPERTIES

 P, BAR            1.0000
 T, K             2500.00
 RHO, KG/CU M    7.3344-2
 H, KJ/KG        -1543.96
 U, KJ/KG        -2907.40
 G, KJ/KG        -42892.3
 S, KJ/(KG)(K)    16.5393

 M, (1/n)          15.245
 (dLV/dLP)t      -1.00460
 (dLV/dLT)p        1.1045
 Cp, KJ/(KG)(K)    4.0486
 GAMMAs            1.1901
 SON VEL,M/SEC     1273.8

 MOLE FRACTIONS

 *C              1.851-12
 *CH             1.404-12
 CH2             1.429-11
 CH3             1.906-10
 CH2OH           3.124-12
 CH3O            5.079-13
 CH4             2.686-10
 CH3OH           7.865-13
 *CO             2.9876-1
 *CO2            3.1516-2
 COOH            7.4519-8
 C2H             1.544-15
 C2H2,acetylene  5.307-13
 C2H2,vinylidene 4.138-16
 CH2CO,ketene    1.557-12
 O(CH)2O         1.093-15
 CH3CO,acetyl    2.962-16
 C2H4            1.546-16
 C2O             8.764-13
 C3O2            2.121-15
 *H              1.5809-2
 HCO             6.6653-7
 HCCO            1.508-13
 HO2             1.8424-8
 *H2             3.9402-1
 HCHO,formaldehy 4.7920-8
 HCOOH           2.8716-8
 H2O             2.5747-1
 H2O2            7.0996-9
 *O              5.6195-5
 *OH             2.3575-3
 *O2             1.5057-5
 O3              2.137-14

  * THERMODYNAMIC PROPERTIES FITTED TO 20000.K









               THERMODYNAMIC EQUILIBRIUM PROPERTIES AT ASSIGNED

                           TEMPERATURE AND PRESSURE

 CASE =                

             REACTANT                       MOLES         ENERGY      TEMP
                                                         KJ/KG-MOL      K
 FUEL        CH3OH                        1.0000000   -200858.418    300.000
 OXIDANT     O2                           1.5000000        54.358    300.000

 O/F=    0.42800  %FUEL= 70.028233  R,EQ.RATIO= 2.153846  PHI,EQ.RATIO= 3.500000

 THERMODYNAMIC PROPERTIES

 P, BAR            1.0000
 T, K             2500.00
 RHO, KG/CU M    7.2701-2
 H, KJ/KG        -1438.09
 U, KJ/KG        -2813.58
 G, KJ/KG        -43037.1
 S, KJ/(KG)(K)    16.6396

 M, (1/n)          15.112
 (dLV/dLP)t      -1.00461
 (dLV/dLT)p        1.1046
 Cp, KJ/(KG)(K)    4.0721
 GAMMAs            1.1908
 SON VEL,M/SEC     1279.8

 MOLE FRACTIONS

 *C              1.945-12
 *CH             1.488-12
 CH2             1.527-11
 CH3             2.055-10
 CH2OH           3.221-12
 CH3O            5.235-13
 CH4             2.921-10
 CH3OH           8.179-13
 *CO             3.0002-1
 *CO2            3.0257-2
 COOH            7.2168-8
 C2H             1.719-15
 C2H2,acetylene  5.959-13
 C2H2,vinylidene 4.646-16
 CH2CO,ketene    1.671-12
 O(CH)2O         1.122-15
 CH3CO,acetyl    3.207-16
 C2H4            1.766-16
 C2O             9.244-13
 C3O2            2.246-15
 *H              1.5947-2
 HCO             6.7519-7
 HCCO            1.604-13
 HO2             1.6987-8
 *H2             4.0096-1
 HCHO,formaldehy 4.8969-8
 HCOOH           2.8054-8
 H2O             2.5048-1
 H2O2            6.6033-9
 *O              5.3724-5
 *OH             2.2736-3
 *O2             1.3762-5
 O3              1.867-14

  * THERMODYNAMIC PROPERTIES FITTED TO 20000.K









               THERMODYNAMIC EQUILIBRIUM PROPERTIES AT ASSIGNED

                           TEMPERATURE AND PRESSURE

 CASE =                

             REACTANT                       MOLES         ENERGY      TEMP
                                                         KJ/KG-MOL      K
 FUEL        CH3OH                        1.0000000   -200858.418    300.000
 OXIDANT     O2                           1.5000000        54.358    300.000

 O/F=    0.41611  %FUEL= 70.616147  R,EQ.RATIO= 2.181818  PHI,EQ.RATIO= 3.600000

 THERMODYNAMIC PROPERTIES

 P, BAR            1.0000
 T, K             2500.00
 RHO, KG/CU M    7.2094-2
 H, KJ/KG        -1336.40
 U, KJ/KG        -2723.47
 G, KJ/KG        -43175.8
 S, KJ/(KG)(K)    16.7358

 M, (1/n)          14.986
 (dLV/dLP)t      -1.00462
 (dLV/dLT)p        1.1047
 Cp, KJ/(KG)(K)    4.0948
 GAMMAs            1.1915
 SON VEL,M/SEC     1285.6

 MOLE FRACTIONS

 *C              2.038-12
 *CH             1.572-12
 CH2             1.627-11
 CH3             2.207-10
 CH2OH           3.313-12
 CH3O            5.385-13
 CH4             3.163-10
 CH3OH           8.482-13
 *CO             3.0117-1
 *CO2            2.9093-2
 COOH            6.9959-8
 C2H             1.903-15
 C2H2,acetylene  6.652-13
 C2H2,vinylidene 5.187-16
 CH2CO,ketene    1.787-12
 O(CH)2O         1.149-15
 CH3CO,acetyl    3.458-16
 C2H4            2.004-16
 C2O             9.725-13
 C3O2            2.373-15
 *H              1.6078-2
 HCO             6.8334-7
 HCCO            1.702-13
 HO2             1.5712-8
 *H2             4.0754-1
 HCHO,formaldehy 4.9964-8
 HCOOH           2.7418-8
 H2O             2.4386-1
 H2O2            6.1576-9
 *O              5.1458-5
 *OH             2.1956-3
 *O2             1.2626-5
 O3              1.641-14

  * THERMODYNAMIC PROPERTIES FITTED TO 20000.K



