
 *******************************************************************************

         NASA-GLENN CHEMICAL EQUILIBRIUM PROGRAM CEA2, MAY 21, 2004
                   BY  BONNIE MCBRIDE AND SANFORD GORDON
      REFS: NASA RP-1311, PART I, 1994 AND NASA RP-1311, PART II, 1996

 *******************************************************************************



 problem
       shock  inc  eq  mach1=2,3,4,5,6,7,8,9, t,k=300,300,300,300,300,300,300,300
 ,300,300,  p,bar=1,1,1,1,1,1,1,1,1,1,
 react
   name=O2 moles=1 t,k=300
   name=N2 moles=3.7274 t,k=300
   name=Ar moles=0.0458 t,k=300
 output
      trace=1e-16 siunits short
 end




                         SHOCK WAVE PARAMETERS ASSUMING

                 EQUILIBRIUM COMPOSITION FOR INCIDENT SHOCKED CONDITIONS


 CASE =                

             REACTANT                       MOLES         ENERGY      TEMP
                                                         KJ/KG-MOL      K
 NAME        O2                           1.0000000        54.358    300.000
 NAME        N2                           3.7274000        53.881    300.000
 NAME        Ar                           0.0458000        38.455    300.000

 O/F=    0.00000  %FUEL=  0.000000  R,EQ.RATIO= 0.000000  PHI,EQ.RATIO= 0.000000

 INITIAL GAS (1)
 MACH NUMBER1      2.0000   3.0000   4.0000   5.0000   6.0000   7.0000   8.0000   9.0000
 U1, M/SEC         694.47  1041.71  1388.94  1736.18  2083.41  2430.65  2777.88  3125.12
 P, BAR            1.0000   1.0000   1.0000   1.0000   1.0000   1.0000   1.0000   1.0000
 T, K              300.00   300.00   300.00   300.00   300.00   300.00   300.00   300.00
 RHO, KG/CU M    1.1611 0 1.1611 0 1.1611 0 1.1611 0 1.1611 0 1.1611 0 1.1611 0 1.1611 0
 H, KJ/KG          1.8587   1.8587   1.8587   1.8587   1.8587   1.8587   1.8587   1.8587
 U, KJ/KG         -84.264  -84.264  -84.264  -84.264  -84.264  -84.264  -84.264  -84.264
 G, KJ/KG        -2059.12 -2059.12 -2059.12 -2059.12 -2059.12 -2059.12 -2059.12 -2059.12
 S, KJ/(KG)(K)     6.8699   6.8699   6.8699   6.8699   6.8699   6.8699   6.8699   6.8699

 M, (1/n)          28.963   28.963   28.963   28.963   28.963   28.963   28.963   28.963
 Cp, KJ/(KG)(K)    1.0047   1.0047   1.0047   1.0047   1.0047   1.0047   1.0047   1.0047
 GAMMAs            1.4000   1.4000   1.4000   1.4000   1.4000   1.4000   1.4000   1.4000
 SON VEL,M/SEC      347.2    347.2    347.2    347.2    347.2    347.2    347.2    347.2

 SHOCKED GAS (2)--INCIDENT--EQUILIBRIUM
 U2, M/SEC         258.83   262.24   283.89   310.68   337.93   362.89   383.45   399.83
 P, BAR            4.5129   10.428   18.822   29.737   43.225   59.359   78.233   99.893
 T, K              504.59   787.56  1154.12  1596.43  2103.37  2656.61  3222.46  3766.68
 RHO, KG/CU M    3.1154 0 4.6124 0 5.6809 0 6.4888 0 7.1586 0 7.7773 0 8.4117 0 9.0756 0
 H, KJ/KG          209.51   510.05   926.14  1460.75  2115.06  2890.04  3786.66  4805.12
 U, KJ/KG          64.652   283.96   594.83  1002.47  1511.24  2126.81  2856.62  3704.45
 G, KJ/KG        -3304.73 -5157.06 -7682.60 -10862.6 -14643.2 -18901.4 -23373.8 -27772.7
 S, KJ/(KG)(K)     6.9645   7.1958   7.4592   7.7193   7.9673   8.2027   8.4285   8.6490

 M, (1/n)          28.963   28.963   28.963   28.963   28.963   28.941   28.809   28.454
 (dLV/dLP)t      -1.00000 -1.00000 -1.00000 -1.00001 -1.00005 -1.00047 -1.00276 -1.00859
 (dLV/dLT)p        1.0000   1.0000   1.0000   1.0000   1.0006   1.0097   1.0503   1.1340
 Cp, KJ/(KG)(K)    1.0303   1.0957   1.1710   1.2458   1.3381   1.4785   1.7367   2.0982
 GAMMAs            1.3863   1.3550   1.3247   1.2994   1.2735   1.2463   1.2203   1.2056
 SON VEL,M/SEC      448.1    553.5    662.5    771.7    876.9    975.3   1065.3   1151.9

 P2/P1              4.513   10.428   18.822   29.737   43.225   59.359   78.233   99.893
 T2/T1              1.682    2.625    3.847    5.321    7.011    8.855   10.742   12.556
 M2/M1             1.0000   1.0000   1.0000   1.0000   1.0000   0.9992   0.9947   0.9824
 RHO2/RHO1         2.6831   3.9723   4.8925   5.5883   6.1652   6.6980   7.2444   7.8162
 V2, M/SEC         435.64   779.47  1105.05  1425.50  1745.48  2067.76  2394.43  2725.29

 MOLE FRACTIONS

 *Ar             9.5952-3 9.5952-3 9.5953-3 9.5954-3 9.5952-3 9.5879-3 9.5441-3 9.4265-3
 *N              0.000  0 1.591-29 1.277-19 9.990-14 4.992-10 1.300 -7 5.180 -6 6.131 -5
 *NO             6.417-10 1.603 -6 1.350 -4 1.889 -3 9.828 -3 2.824 -2 5.470 -2 8.045 -2
 NO2             7.0549-8 1.8403-6 1.2499-5 4.2002-5 9.4114-5 1.6096-4 2.2308-4 2.5851-4
 NO3             1.975-16 1.945-13 1.198-11 1.684-10 1.005 -9 3.409 -9 7.535 -9 1.174 -8
 *N2             7.8090-1 7.8090-1 7.8083-1 7.7995-1 7.7594-1 7.6609-1 7.4925-1 7.2674-1
 N2O             3.476-13 5.672-10 4.217 -8 6.139 -7 3.593 -6 1.200 -5 2.717 -5 4.637 -5
 N2O3            1.807-19 1.197-15 2.377-13 7.213-12 7.385-11 3.727-10 1.111 -9 2.181 -9
 N2O4            1.381-17 2.152-16 1.607-15 7.871-15 2.802-14 7.466-14 1.485-13 2.192-13
 N2O5            1.698-20 4.980-19 5.665-18 3.774-17 1.700-16 5.400-16 1.209-15 1.889-15
 N3              0.000  0 1.043-32 2.209-23 8.825-18 3.208-14 7.358-12 2.877-10 3.536 -9
 *O              4.324-24 6.222-15 9.640-10 1.163 -6 9.783 -5 1.713 -3 1.090 -2 3.541 -2
 *O2             2.0950-1 2.0950-1 2.0942-1 2.0852-1 2.0444-1 1.9420-1 1.7535-1 1.4760-1
 O3              1.061-19 3.018-14 4.118-11 3.320 -9 5.580 -8 3.776 -7 1.413 -6 3.371 -6

  * THERMODYNAMIC PROPERTIES FITTED TO 20000.K



