
 *******************************************************************************

         NASA-GLENN CHEMICAL EQUILIBRIUM PROGRAM CEA2, MAY 21, 2004
                   BY  BONNIE MCBRIDE AND SANFORD GORDON
      REFS: NASA RP-1311, PART I, 1994 AND NASA RP-1311, PART II, 1996

 *******************************************************************************



 problem    phi,eq.ratio=2.1,2.2,2.3,2.4,2.5,2.6,2.7,2.8,2.9,3,3.1,3.2,3.3,3.4,3.
 5,3.6,
       det   t,k=300,  p,bar=1,
 react
   fuel=C2H4 moles=1 t,k=300
   oxid=O2 moles=3 t,k=300
 output
      trace=1e-16 siunits short
 end


                     DETONATION PROPERTIES OF AN IDEAL REACTING GAS
 CASE =                

             REACTANT                       MOLES         ENERGY      TEMP
                                                         KJ/KG-MOL      K
 FUEL        C2H4                         1.0000000     52579.505    300.000
 OXIDANT     O2                           3.0000000        54.358    300.000

 O/F=    1.62950  %FUEL= 38.030071  R,EQ.RATIO= 2.100000  PHI,EQ.RATIO= 2.100000

 UNBURNED GAS

 P1, BAR           1.0000
 T1, K             300.00
 H1, KJ/KG         713.84
 M1, (1/n)         30.374
 GAMMA1            1.3114
 SON VEL1,M/SEC     328.2

 BURNED GAS

 P, BAR            41.037
 T, K             3810.16
 RHO, KG/CU M    2.2333 0
 H, KJ/KG         3254.15
 U, KJ/KG         1416.66
 G, KJ/KG        -49282.2
 S, KJ/(KG)(K)    13.7885

 M, (1/n)          17.241
 (dLV/dLP)t      -1.03396
 (dLV/dLT)p        1.5239
 Cp, KJ/(KG)(K)    6.2529
 GAMMAs            1.1698
 SON VEL,M/SEC     1466.1

 DETONATION PARAMETERS

 P/P1              41.037
 T/T1              12.701
 M/M1              0.5676
 RHO/RHO1          1.8340
 DET MACH NUMBER   8.1938
 DET VEL,M/SEC     2688.9

 MOLE FRACTIONS

 *C              5.7307-8
 *CH             2.9954-8
 CH2             4.6681-8
 CH3             5.7929-8
 CH2OH           3.0906-9
 CH3O            1.1367-9
 CH4             1.4440-8
 CH3OH           2.051-10
 CH3OOH          6.415-15
 *CO             4.4095-1
 *CO2            2.6419-2
 COOH            6.2883-6
 *C2             8.903-12
 C2H             1.829-10
 C2H2,acetylene  1.2543-9
 C2H2,vinylidene 1.682-11
 CH2CO,ketene    1.7874-9
 O(CH)2O         5.142-12
 HO(CO)2OH       2.977-14
 C2H3,vinyl      1.739-12
 CH3CO,acetyl    3.825-12
 C2H4            4.975-13
 C2H4O,ethylen-o 2.116-16
 CH3CHO,ethanal  9.242-14
 CH3COOH         8.768-15
 OHCH2COOH       4.614-16
 C2H5            1.273-15
 C2O             1.0685-8
 *C3             8.307-15
 C3H3,2-propynl  1.149-15
 C3O2            2.333-11
 *H              9.1265-2
 HCO             6.5146-5
 HCCO            1.3815-9
 HO2             7.3600-6
 *H2             2.6837-1
 HCHO,formaldehy 2.0815-6
 HCOOH           1.0000-6
 H2O             1.3978-1
 H2O2            1.2819-6
 *O              4.9263-3
 *OH             2.7236-2
 *O2             9.7298-4
 O3              1.2428-9

  * THERMODYNAMIC PROPERTIES FITTED TO 20000.K


                     DETONATION PROPERTIES OF AN IDEAL REACTING GAS
 CASE =                

             REACTANT                       MOLES         ENERGY      TEMP
                                                         KJ/KG-MOL      K
 FUEL        C2H4                         1.0000000     52579.505    300.000
 OXIDANT     O2                           3.0000000        54.358    300.000

 O/F=    1.55543  %FUEL= 39.132357  R,EQ.RATIO= 2.200000  PHI,EQ.RATIO= 2.200000

 UNBURNED GAS

 P1, BAR           1.0000
 T1, K             300.00
 H1, KJ/KG         734.48
 M1, (1/n)         30.329
 GAMMA1            1.3096
 SON VEL1,M/SEC     328.2

 BURNED GAS

 P, BAR            41.098
 T, K             3754.67
 RHO, KG/CU M    2.2258 0
 H, KJ/KG         3284.14
 U, KJ/KG         1437.66
 G, KJ/KG        -48938.3
 S, KJ/(KG)(K)    13.9087

 M, (1/n)          16.907
 (dLV/dLP)t      -1.02914
 (dLV/dLT)p        1.4524
 Cp, KJ/(KG)(K)    5.8303
 GAMMAs            1.1748
 SON VEL,M/SEC     1472.8

 DETONATION PARAMETERS

 P/P1              41.098
 T/T1              12.516
 M/M1              0.5574
 RHO/RHO1          1.8305
 DET MACH NUMBER   8.2151
 DET VEL,M/SEC     2696.0

 MOLE FRACTIONS

 *C              5.4350-8
 *CH             3.1492-8
 CH2             5.6856-8
 CH3             8.2713-8
 CH2OH           3.4628-9
 CH3O            1.2413-9
 CH4             2.3600-8
 CH3OH           2.612-10
 CH3OOH          5.719-15
 *CO             4.4947-1
 *CO2            2.2141-2
 COOH            5.0789-6
 *C2             1.067-11
 C2H             2.587-10
 C2H2,acetylene  2.1707-9
 C2H2,vinylidene 2.693-11
 CH2CO,ketene    2.5612-9
 O(CH)2O         5.736-12
 HO(CO)2OH       2.206-14
 C2H3,vinyl      3.067-12
 CH3CO,acetyl    5.609-12
 C2H4            1.027-12
 C2H4O,ethylen-o 3.309-16
 CH3CHO,ethanal  1.531-13
 CH3COOH         1.182-14
 OHCH2COOH       4.782-16
 C2H5            2.669-15
 C2H6            1.378-16
 C2O             1.1897-8
 *C3             1.330-14
 C3H3,2-propynl  2.634-15
 C3O2            2.978-11
 *H              8.5663-2
 HCO             6.4720-5
 HCCO            1.7027-9
 HO2             4.0275-6
 *H2             2.9380-1
 HCHO,formaldehy 2.3190-6
 HCOOH           9.0777-7
 H2O             1.2484-1
 H2O2            7.8727-7
 *O              3.1639-3
 *OH             2.0342-2
 *O2             5.1098-4
 O3              4.317-10

  * THERMODYNAMIC PROPERTIES FITTED TO 20000.K


                     DETONATION PROPERTIES OF AN IDEAL REACTING GAS
 CASE =                

             REACTANT                       MOLES         ENERGY      TEMP
                                                         KJ/KG-MOL      K
 FUEL        C2H4                         1.0000000     52579.505    300.000
 OXIDANT     O2                           3.0000000        54.358    300.000

 O/F=    1.48780  %FUEL= 40.196115  R,EQ.RATIO= 2.300000  PHI,EQ.RATIO= 2.300000

 UNBURNED GAS

 P1, BAR           1.0000
 T1, K             300.00
 H1, KJ/KG         754.40
 M1, (1/n)         30.287
 GAMMA1            1.3079
 SON VEL1,M/SEC     328.2

 BURNED GAS

 P, BAR            41.064
 T, K             3694.18
 RHO, KG/CU M    2.2181 0
 H, KJ/KG         3307.30
 U, KJ/KG         1455.99
 G, KJ/KG        -48483.8
 S, KJ/(KG)(K)    14.0197

 M, (1/n)          16.591
 (dLV/dLP)t      -1.02496
 (dLV/dLT)p        1.3904
 Cp, KJ/(KG)(K)    5.4567
 GAMMAs            1.1801
 SON VEL,M/SEC     1478.1

 DETONATION PARAMETERS

 P/P1              41.064
 T/T1              12.314
 M/M1              0.5478
 RHO/RHO1          1.8268
 DET MACH NUMBER   8.2270
 DET VEL,M/SEC     2700.1

 MOLE FRACTIONS

 *C              5.0355-8
 *CH             3.2417-8
 CH2             6.8315-8
 CH3             1.1759-7
 CH2OH           3.7942-9
 CH3O            1.3217-9
 CH4             3.8671-8
 CH3OH           3.272-10
 CH3OOH          4.857-15
 *CO             4.5709-1
 *CO2            1.8293-2
 COOH            3.9830-6
 *C2             1.262-11
 C2H             3.646-10
 C2H2,acetylene  3.7983-9
 C2H2,vinylidene 4.317-11
 CH2CO,ketene    3.6690-9
 O(CH)2O         6.278-12
 HO(CO)2OH       1.562-14
 C2H3,vinyl      5.423-12
 CH3CO,acetyl    8.159-12
 C2H4            2.146-12
 C2H4O,ethylen-o 5.121-16
 CH3CHO,ethanal  2.526-13
 CH3COOH         1.567-14
 OHCH2COOH       4.777-16
 C2H5            5.615-15
 C2H6            3.347-16
 C2O             1.3109-8
 *C3             2.134-14
 C3H3,2-propynl  6.141-15
 C3H4,propyne    1.593-16
 C3O2            3.801-11
 *H              7.9135-2
 HCO             6.3271-5
 HCCO            2.0809-9
 HO2             2.0787-6
 *H2             3.1926-1
 HCHO,formaldehy 2.5519-6
 HCOOH           8.0329-7
 H2O             1.0923-1
 H2O2            4.5775-7
 *O              1.9519-3
 *OH             1.4712-2
 *O2             2.5449-4
 O3              1.369-10

  * THERMODYNAMIC PROPERTIES FITTED TO 20000.K


                     DETONATION PROPERTIES OF AN IDEAL REACTING GAS
 CASE =                

             REACTANT                       MOLES         ENERGY      TEMP
                                                         KJ/KG-MOL      K
 FUEL        C2H4                         1.0000000     52579.505    300.000
 OXIDANT     O2                           3.0000000        54.358    300.000

 O/F=    1.42581  %FUEL= 41.223329  R,EQ.RATIO= 2.400000  PHI,EQ.RATIO= 2.400000

 UNBURNED GAS

 P1, BAR           1.0000
 T1, K             300.00
 H1, KJ/KG         773.64
 M1, (1/n)         30.245
 GAMMA1            1.3062
 SON VEL1,M/SEC     328.2

 BURNED GAS

 P, BAR            40.941
 T, K             3629.50
 RHO, KG/CU M    2.2103 0
 H, KJ/KG         3324.15
 U, KJ/KG         1471.88
 G, KJ/KG        -47931.0
 S, KJ/(KG)(K)    14.1218

 M, (1/n)          16.292
 (dLV/dLP)t      -1.02134
 (dLV/dLT)p        1.3368
 Cp, KJ/(KG)(K)    5.1281
 GAMMAs            1.1856
 SON VEL,M/SEC     1481.9

 DETONATION PARAMETERS

 P/P1              40.941
 T/T1              12.098
 M/M1              0.5387
 RHO/RHO1          1.8229
 DET MACH NUMBER   8.2302
 DET VEL,M/SEC     2701.3

 MOLE FRACTIONS

 *C              4.5871-8
 *CH             3.2881-8
 CH2             8.1470-8
 CH3             1.6741-7
 CH2OH           4.0706-9
 CH3O            1.3741-9
 CH4             6.3891-8
 CH3OH           4.034-10
 CH3OOH          3.917-15
 *CO             4.6392-1
 *CO2            1.4834-2
 COOH            3.0214-6
 *C2             1.490-11
 C2H             5.177-10
 C2H2,acetylene  6.7931-9
 C2H2,vinylidene 7.006-11
 CH2CO,ketene    5.2861-9
 O(CH)2O         6.752-12
 HO(CO)2OH       1.049-14
 C2H3,vinyl      9.724-12
 CH3CO,acetyl    1.185-11
 C2H4            4.587-12
 C2H4O,ethylen-o 7.895-16
 CH3CHO,ethanal  4.182-13
 CH3COOH         2.045-14
 OHCH2COOH       4.587-16
 C2H5            1.198-14
 C2H6            8.302-16
 C2O             1.4385-8
 *C3             3.494-14
 C3H3,2-propynl  1.479-14
 C3H4,allene     2.142-16
 C3H4,propyne    4.324-16
 C3O2            4.879-11
 *H              7.1993-2
 HCO             6.0924-5
 HCCO            2.5375-9
 HO2             1.0037-6
 *H2             3.4444-1
 HCHO,formaldehy 2.7761-6
 HCOOH           6.9027-7
 H2O             9.3211-2
 H2O2            2.4988-7
 *O              1.1523-3
 *OH             1.0262-2
 *O2             1.1919-4
 O3              3.917-11

  * THERMODYNAMIC PROPERTIES FITTED TO 20000.K


                     DETONATION PROPERTIES OF AN IDEAL REACTING GAS
 CASE =                

             REACTANT                       MOLES         ENERGY      TEMP
                                                         KJ/KG-MOL      K
 FUEL        C2H4                         1.0000000     52579.505    300.000
 OXIDANT     O2                           3.0000000        54.358    300.000

 O/F=    1.36878  %FUEL= 42.215852  R,EQ.RATIO= 2.500000  PHI,EQ.RATIO= 2.500000

 UNBURNED GAS

 P1, BAR           1.0000
 T1, K             300.00
 H1, KJ/KG         792.23
 M1, (1/n)         30.205
 GAMMA1            1.3047
 SON VEL1,M/SEC     328.2

 BURNED GAS

 P, BAR            40.740
 T, K             3561.38
 RHO, KG/CU M    2.2026 0
 H, KJ/KG         3335.23
 U, KJ/KG         1485.57
 G, KJ/KG        -47291.0
 S, KJ/(KG)(K)    14.2153

 M, (1/n)          16.009
 (dLV/dLP)t      -1.01819
 (dLV/dLT)p        1.2904
 Cp, KJ/(KG)(K)    4.8380
 GAMMAs            1.1913
 SON VEL,M/SEC     1484.4

 DETONATION PARAMETERS

 P/P1              40.740
 T/T1              11.871
 M/M1              0.5300
 RHO/RHO1          1.8189
 DET MACH NUMBER   8.2256
 DET VEL,M/SEC     2699.9

 MOLE FRACTIONS

 *C              4.1454-8
 *CH             3.3160-8
 CH2             9.7279-8
 CH3             2.4073-7
 CH2OH           4.2811-9
 CH3O            1.3969-9
 CH4             1.0736-7
 CH3OH           4.902-10
 CH3OOH          2.983-15
 *CO             4.7003-1
 *CO2            1.1723-2
 COOH            2.2026-6
 *C2             1.784-11
 C2H             7.533-10
 C2H2,acetylene  1.2620-8
 C2H2,vinylidene 1.170-10
 CH2CO,ketene    7.7262-9
 O(CH)2O         7.144-12
 HO(CO)2OH       6.590-15
 C2H3,vinyl      1.797-11
 CH3CO,acetyl    1.735-11
 C2H4            1.019-11
 C2H4O,ethylen-o 1.224-15
 CH3CHO,ethanal  7.006-13
 CH3COOH         2.635-14
 OHCH2COOH       4.210-16
 C2H5            2.638-14
 C2H6            2.138-15
 C2O             1.5860-8
 *C3             5.977-14
 C3H3,1-propynl  1.250-16
 C3H3,2-propynl  3.768-14
 C3H4,allene     6.145-16
 C3H4,propyne    1.246-15
 C3O2            6.357-11
 C4H2,butadiyne  1.786-16
 *H              6.4532-2
 HCO             5.7829-5
 HCCO            3.1148-9
 HO2             4.4713-7
 *H2             3.6906-1
 HCHO,formaldehy 2.9879-6
 HCOOH           5.7222-7
 H2O             7.7031-2
 H2O2            1.2631-7
 *O              6.4676-4
 *OH             6.8565-3
 *O2             5.1760-5
 O3              9.910-12

  * THERMODYNAMIC PROPERTIES FITTED TO 20000.K


                     DETONATION PROPERTIES OF AN IDEAL REACTING GAS
 CASE =                

             REACTANT                       MOLES         ENERGY      TEMP
                                                         KJ/KG-MOL      K
 FUEL        C2H4                         1.0000000     52579.505    300.000
 OXIDANT     O2                           3.0000000        54.358    300.000

 O/F=    1.31613  %FUEL= 43.175412  R,EQ.RATIO= 2.600000  PHI,EQ.RATIO= 2.600000

 UNBURNED GAS

 P1, BAR           1.0000
 T1, K             300.00
 H1, KJ/KG         810.19
 M1, (1/n)         30.167
 GAMMA1            1.3032
 SON VEL1,M/SEC     328.3

 BURNED GAS

 P, BAR            40.464
 T, K             3490.36
 RHO, KG/CU M    2.1947 0
 H, KJ/KG         3340.80
 U, KJ/KG         1497.07
 G, KJ/KG        -46572.7
 S, KJ/(KG)(K)    14.3004

 M, (1/n)          15.740
 (dLV/dLP)t      -1.01545
 (dLV/dLT)p        1.2498
 Cp, KJ/(KG)(K)    4.5795
 GAMMAs            1.1972
 SON VEL,M/SEC     1485.7

 DETONATION PARAMETERS

 P/P1              40.464
 T/T1              11.635
 M/M1              0.5218
 RHO/RHO1          1.8147
 DET MACH NUMBER   8.2131
 DET VEL,M/SEC     2696.0

 MOLE FRACTIONS

 *C              3.7653-8
 *CH             3.3692-8
 CH2             1.1787-7
 CH3             3.5440-7
 CH2OH           4.4184-9
 CH3O            1.3901-9
 CH4             1.8604-7
 CH3OH           5.879-10
 CH3OOH          2.121-15
 *CO             4.7552-1
 *CO2            8.9185-3
 COOH            1.5246-6
 *C2             2.227-11
 C2H             1.1527-9
 C2H2,acetylene  2.5005-8
 C2H2,vinylidene 2.065-10
 CH2CO,ketene    1.1614-8
 O(CH)2O         7.447-12
 HO(CO)2OH       3.782-15
 C2H3,vinyl      3.516-11
 CH3CO,acetyl    2.594-11
 C2H4            2.419-11
 C2H4O,ethylen-o 1.935-15
 CH3CHO,ethanal  1.204-12
 CH3COOH         3.354-14
 OHCH2COOH       3.653-16
 C2H5            6.157-14
 C2H6            5.873-15
 C2O             1.7805-8
 *C3             1.111-13
 C3H3,1-propynl  3.256-16
 C3H3,2-propynl  1.057-13
 C3H4,allene     1.947-15
 C3H4,propyne    3.970-15
 C3O2            8.520-11
 C4H2,butadiyne  6.593-16
 *H              5.7011-2
 HCO             5.4140-5
 HCCO            3.9012-9
 HO2             1.7930-7
 *H2             3.9289-1
 HCHO,formaldehy 3.1840-6
 HCOOH           4.5226-7
 H2O             6.0902-2
 H2O2            5.7686-8
 *O              3.4083-4
 *OH             4.3345-3
 *O2             2.0327-5
 O3              2.136-12

  * THERMODYNAMIC PROPERTIES FITTED TO 20000.K


                     DETONATION PROPERTIES OF AN IDEAL REACTING GAS
 CASE =                

             REACTANT                       MOLES         ENERGY      TEMP
                                                         KJ/KG-MOL      K
 FUEL        C2H4                         1.0000000     52579.505    300.000
 OXIDANT     O2                           3.0000000        54.358    300.000

 O/F=    1.26739  %FUEL= 44.103623  R,EQ.RATIO= 2.700000  PHI,EQ.RATIO= 2.700000

 UNBURNED GAS

 P1, BAR           1.0000
 T1, K             300.00
 H1, KJ/KG         827.58
 M1, (1/n)         30.130
 GAMMA1            1.3018
 SON VEL1,M/SEC     328.3

 BURNED GAS

 P, BAR            40.119
 T, K             3416.93
 RHO, KG/CU M    2.1866 0
 H, KJ/KG         3341.32
 U, KJ/KG         1506.60
 G, KJ/KG        -45783.3
 S, KJ/(KG)(K)    14.3768

 M, (1/n)          15.485
 (dLV/dLP)t      -1.01305
 (dLV/dLT)p        1.2140
 Cp, KJ/(KG)(K)    4.3466
 GAMMAs            1.2034
 SON VEL,M/SEC     1485.9

 DETONATION PARAMETERS

 P/P1              40.119
 T/T1              11.390
 M/M1              0.5139
 RHO/RHO1          1.8102
 DET MACH NUMBER   8.1937
 DET VEL,M/SEC     2689.9

 MOLE FRACTIONS

 *C              3.5205-8
 *CH             3.5335-8
 CH2             1.4851-7
 CH3             5.4759-7
 CH2OH           4.4798-9
 CH3O            1.3557-9
 CH4             3.4099-7
 CH3OH           6.968-10
 CH3OOH          1.378-15
 *CO             4.8045-1
 *CO2            6.3796-3
 COOH            9.7910-7
 *C2             3.036-11
 C2H             1.9468-9
 C2H2,acetylene  5.5466-8
 C2H2,vinylidene 4.040-10
 CH2CO,ketene    1.8407-8
 O(CH)2O         7.657-12
 HO(CO)2OH       1.894-15
 C2H3,vinyl      7.647-11
 CH3CO,acetyl    4.066-11
 C2H4            6.441-11
 C2H4O,ethylen-o 3.201-15
 CH3CHO,ethanal  2.181-12
 CH3COOH         4.228-14
 OHCH2COOH       2.933-16
 C2H5            1.600-13
 C2H6            1.809-14
 C2H5OH          1.803-16
 C2O             2.0854-8
 *C3             2.409-13
 C3H3,1-propynl  9.987-16
 C3H3,2-propynl  3.512-13
 C3H4,allene     7.331-15
 C3H4,propyne    1.503-14
 C3H4,cyclo-     2.667-16
 C3H5,allyl      1.562-16
 C3O2            1.204-10
 C4H2,butadiyne  3.068-15
 *H              4.9648-2
 HCO             5.0016-5
 HCCO            5.1094-9
 HO2             6.1733-8
 *H2             4.1576-1
 HCHO,formaldehy 3.3624-6
 HCOOH           3.3310-7
 H2O             4.5008-2
 H2O2            2.2712-8
 *O              1.6467-4
 *OH             2.5323-3
 *O2             6.8840-6
 O3              3.653-13

  * THERMODYNAMIC PROPERTIES FITTED TO 20000.K


                     DETONATION PROPERTIES OF AN IDEAL REACTING GAS
 CASE =                

             REACTANT                       MOLES         ENERGY      TEMP
                                                         KJ/KG-MOL      K
 FUEL        C2H4                         1.0000000     52579.505    300.000
 OXIDANT     O2                           3.0000000        54.358    300.000

 O/F=    1.22212  %FUEL= 45.001997  R,EQ.RATIO= 2.800000  PHI,EQ.RATIO= 2.800000

 UNBURNED GAS

 P1, BAR           1.0000
 T1, K             300.00
 H1, KJ/KG         844.40
 M1, (1/n)         30.094
 GAMMA1            1.3004
 SON VEL1,M/SEC     328.3

 BURNED GAS

 P, BAR            39.709
 T, K             3341.40
 RHO, KG/CU M    2.1785 0
 H, KJ/KG         3337.03
 U, KJ/KG         1514.25
 G, KJ/KG        -44927.2
 S, KJ/(KG)(K)    14.4443

 M, (1/n)          15.242
 (dLV/dLP)t      -1.01094
 (dLV/dLT)p        1.1824
 Cp, KJ/(KG)(K)    4.1345
 GAMMAs            1.2099
 SON VEL,M/SEC     1485.1

 DETONATION PARAMETERS

 P/P1              39.709
 T/T1              11.138
 M/M1              0.5065
 RHO/RHO1          1.8056
 DET MACH NUMBER   8.1677
 DET VEL,M/SEC     2681.5

 MOLE FRACTIONS

 *C              3.5708-8
 *CH             4.0329-8
 CH2             2.0528-7
 CH3             9.3752-7
 CH2OH           4.4657-9
 CH3O            1.2969-9
 CH4             6.9848-7
 CH3OH           8.175-10
 CH3OOH          7.759-16
 *CO             4.8488-1
 *CO2            4.0696-3
 COOH            5.5322-7
 *C2             5.031-11
 C2H             4.0378-9
 C2H2,acetylene  1.5340-7
 C2H2,vinylidene 9.762-10
 CH2CO,ketene    3.2481-8
 O(CH)2O         7.772-12
 HO(CO)2OH       7.446-16
 C2H3,vinyl      2.059-10
 CH3CO,acetyl    7.052-11
 C2H4            2.144-10
 C2H4O,ethylen-o 5.854-15
 CH3CHO,ethanal  4.392-12
 CH3COOH         5.286-14
 OHCH2COOH       2.069-16
 C2H5            5.162-13
 C2H6            6.971-14
 C2H5OH          3.978-16
 C2O             2.6875-8
 *C3             7.156-13
 C3H3,1-propynl  4.238-15
 C3H3,2-propynl  1.624-12
 C3H4,allene     3.858-14
 C3H4,propyne    7.961-14
 C3H4,cyclo-     1.312-15
 C3H5,allyl      8.514-16
 C3H6,propylene  1.446-16
 C3O2            1.894-10
 C4H2,butadiyne  2.231-14
 *H              4.2613-2
 HCO             4.5603-5
 HCCO            7.3839-9
 HO2             1.6394-8
 *H2             4.3753-1
 HCHO,formaldehy 3.5212-6
 HCOOH           2.1693-7
 H2O             2.9492-2
 H2O2            6.9287-9
 *O              6.9091-5
 *OH             1.2959-3
 *O2             1.8056-6
 O3              4.221-14

  * THERMODYNAMIC PROPERTIES FITTED TO 20000.K


                     DETONATION PROPERTIES OF AN IDEAL REACTING GAS
 CASE =                

             REACTANT                       MOLES         ENERGY      TEMP
                                                         KJ/KG-MOL      K
 FUEL        C2H4                         1.0000000     52579.505    300.000
 OXIDANT     O2                           3.0000000        54.358    300.000

 O/F=    1.17998  %FUEL= 45.871951  R,EQ.RATIO= 2.900000  PHI,EQ.RATIO= 2.900000

 UNBURNED GAS

 P1, BAR           1.0000
 T1, K             300.00
 H1, KJ/KG         860.69
 M1, (1/n)         30.059
 GAMMA1            1.2991
 SON VEL1,M/SEC     328.3

 BURNED GAS

 P, BAR            39.237
 T, K             3263.98
 RHO, KG/CU M    2.1701 0
 H, KJ/KG         3328.12
 U, KJ/KG         1520.08
 G, KJ/KG        -44004.6
 S, KJ/(KG)(K)    14.5016

 M, (1/n)          15.010
 (dLV/dLP)t      -1.00909
 (dLV/dLT)p        1.1543
 Cp, KJ/(KG)(K)    3.9398
 GAMMAs            1.2169
 SON VEL,M/SEC     1483.3

 DETONATION PARAMETERS

 P/P1              39.237
 T/T1              10.880
 M/M1              0.4993
 RHO/RHO1          1.8008
 DET MACH NUMBER   8.1353
 DET VEL,M/SEC     2671.1

 MOLE FRACTIONS

 *C              4.6484-8
 *CH             5.9306-8
 CH2             3.6885-7
 CH3             2.1095-6
 CH2OH           4.3797-9
 CH3O            1.2174-9
 CH4             1.8984-6
 CH3OH           9.506-10
 CH3OOH          3.197-16
 *CO             4.8887-1
 *CO2            1.9541-3
 COOH            2.3208-7
 *C2             1.420-10
 C2H             1.4437-8
 C2H2,acetylene  7.4355-7
 C2H2,vinylidene 4.0913-9
 CH2CO,ketene    7.5696-8
 O(CH)2O         7.794-12
 HO(CO)2OH       1.638-16
 C2H3,vinyl      9.648-10
 CH3CO,acetyl    1.606-10
 C2H4            1.2562-9
 C2H4O,ethylen-o 1.405-14
 CH3CHO,ethanal  1.169-11
 CH3COOH         6.568-14
 OHCH2COOH       1.084-16
 C2H5            2.910-12
 C2H6            4.732-13
 C2H5OH          1.156-15
 C2O             4.5137-8
 *C3             4.840-12
 C3H3,1-propynl  4.145-14
 C3H3,2-propynl  1.742-11
 C3H4,allene     4.733-13
 C3H4,propyne    9.831-13
 C3H4,cyclo-     1.496-14
 C3H5,allyl      1.079-14
 C3H6,propylene  2.122-15
 C3O2            3.932-10
 *C4             1.165-16
 C4H2,butadiyne  5.008-13
 *H              3.6032-2
 HCO             4.1036-5
 HCCO            1.3954-8
 HO2             2.3884-9
 *H2             4.5812-1
 HCHO,formaldehy 3.6592-6
 HCOOH           1.0550-7
 H2O             1.4467-2
 H2O2            1.1657-9
 *O              2.1212-5
 *OH             4.8987-4
 *O2             2.6079-7
 O3              1.975-15

  * THERMODYNAMIC PROPERTIES FITTED TO 20000.K


                     DETONATION PROPERTIES OF AN IDEAL REACTING GAS
 CASE =                

             REACTANT                       MOLES         ENERGY      TEMP
                                                         KJ/KG-MOL      K
 FUEL        C2H4                         1.0000000     52579.505    300.000
 OXIDANT     O2                           3.0000000        54.358    300.000

 O/F=    1.14065  %FUEL= 46.714812  R,EQ.RATIO= 3.000000  PHI,EQ.RATIO= 3.000000

 UNBURNED GAS

 P1, BAR           1.0000
 T1, K             300.00
 H1, KJ/KG         876.47
 M1, (1/n)         30.026
 GAMMA1            1.2979
 SON VEL1,M/SEC     328.4

 BURNED GAS

 P, BAR            38.682
 T, K             3184.71
 RHO, KG/CU M    2.1623 0
 H, KJ/KG         3312.98
 U, KJ/KG         1524.04
 G, KJ/KG        -42997.5
 S, KJ/(KG)(K)    14.5415

 M, (1/n)          14.802
 (dLV/dLP)t      -1.00813
 (dLV/dLT)p        1.1302
 Cp, KJ/(KG)(K)    3.7629
 GAMMAs            1.2233
 SON VEL,M/SEC     1479.3

 DETONATION PARAMETERS

 P/P1              38.682
 T/T1              10.616
 M/M1              0.4930
 RHO/RHO1          1.7963
 DET MACH NUMBER   8.0926
 DET VEL,M/SEC     2657.3

 MOLE FRACTIONS

 *C              5.7715-7
 *CH             8.3481-7
 CH2             6.4021-6
 CH3             4.6377-5
 CH2OH           4.2093-9
 CH3O            1.1170-9
 CH4             5.0914-5
 CH3OH           1.0916-9
 *CO             4.9200-1
 *CO2            9.4610-5
 COOH            9.6656-9
 *C2             3.7820-8
 C2H             4.9296-6
 C2H2,acetylene  3.5020-4
 C2H2,vinylidene 1.6474-6
 CH2CO,ketene    1.7319-6
 O(CH)2O         7.693-12
 C2H3,vinyl      4.3566-7
 CH3CO,acetyl    3.5664-9
 C2H4            7.1730-7
 C2H4O,ethylen-o 3.282-13
 CH3CHO,ethanal  3.051-10
 CH3COOH         8.076-14
 C2H5            1.5854-9
 C2H6            3.132-10
 C2H5OH          3.284-14
 CH3OCH3         7.582-16
 C2O             7.3439-7
 *C3             3.0761-8
 C3H3,1-propynl  3.855-10
 C3H3,2-propynl  1.7885-7
 C3H4,allene     5.5859-9
 C3H4,propyne    1.1683-8
 C3H4,cyclo-     1.632-10
 C3H5,allyl      1.313-10
 C3H6,propylene  3.004-11
 C3H6,cyclo-     2.518-13
 C3H6O,acetone   3.048-15
 C3H6O,propanal  4.774-15
 C3H7,n-propyl   2.621-14
 C3H7,i-propyl   1.596-14
 C3H8            4.966-15
 C3O2            8.0052-9
 *C4             1.427-11
 C4H2,butadiyne  1.0678-7
 C4H4,1,3-cyclo- 3.030-13
 C4H6,butadiene  1.142-12
 C4H6,1butyne    1.995-13
 C4H6,2butyne    9.231-14
 C4H6,cyclo-     4.209-15
 C4H8,1-butene   4.347-16
 C4H8,cis2-buten 1.320-16
 C4H8,tr2-butene 1.502-16
 C4H8,isobutene  1.445-16
 *C5             6.734-12
 C5H6,1,3cyclo-  2.357-15
 C6H2            3.470-11
 C6H5,phenyl     2.401-16
 C6H6            2.585-16
 *H              2.9971-2
 HCO             3.6351-5
 HCCO            2.5626-7
 HO2             3.420-12
 *H2             4.7670-1
 HCHO,formaldehy 3.7640-6
 HCOOH           5.1224-9
 H2O             7.1130-4
 H2O2            1.937-12
 *O              6.3751-7
 *OH             1.8305-5
 *O2             3.720-10

  * THERMODYNAMIC PROPERTIES FITTED TO 20000.K


                     DETONATION PROPERTIES OF AN IDEAL REACTING GAS
 CASE =                

             REACTANT                       MOLES         ENERGY      TEMP
                                                         KJ/KG-MOL      K
 FUEL        C2H4                         1.0000000     52579.505    300.000
 OXIDANT     O2                           3.0000000        54.358    300.000

 O/F=    1.10385  %FUEL= 47.531825  R,EQ.RATIO= 3.100000  PHI,EQ.RATIO= 3.100000

 UNBURNED GAS

 P1, BAR           1.0000
 T1, K             300.00
 H1, KJ/KG         891.77
 M1, (1/n)         29.994
 GAMMA1            1.2967
 SON VEL1,M/SEC     328.4

 BURNED GAS

 P, BAR            37.470
 T, K             3098.40
 RHO, KG/CU M    2.1564 0
 H, KJ/KG         3253.91
 U, KJ/KG         1516.24
 G, KJ/KG        -41811.9
 S, KJ/(KG)(K)    14.5449

 M, (1/n)          14.825
 (dLV/dLP)t      -1.00657
 (dLV/dLT)p        1.1096
 Cp, KJ/(KG)(K)    3.6057
 GAMMAs            1.2269
 SON VEL,M/SEC     1460.1

 DETONATION PARAMETERS

 P/P1              37.470
 T/T1              10.328
 M/M1              0.4943
 RHO/RHO1          1.7933
 DET MACH NUMBER   7.9735
 DET VEL,M/SEC     2618.4

 MOLE FRACTIONS

 *C              1.4697-6
 *CH             2.3932-6
 CH2             2.2743-5
 CH3             2.1065-4
 CH2OH           3.6528-9
 CH3O            9.197-10
 CH4             2.8361-4
 CH3OH           1.1332-9
 *CO             4.8594-1
 *CO2            1.9939-5
 COOH            1.6705-9
 *C2             4.5201-7
 C2H             7.6398-5
 C2H2,acetylene  7.6534-3
 C2H2,vinylidene 3.0059-5
 CH2CO,ketene    8.1612-6
 O(CH)2O         6.823-12
 C2H3,vinyl      8.8413-6
 CH3CO,acetyl    1.5836-8
 C2H4            1.8580-5
 C2H4O,ethylen-o 1.507-12
 CH3CHO,ethanal  1.5901-9
 CH3COOH         8.762-14
 C2H5            3.7938-8
 C2H6            9.1376-9
 C2H5OH          1.791-13
 CH3OCH3         3.927-15
 C2O             2.4633-6
 *C3             1.9501-6
 C3H3,1-propynl  3.5056-8
 C3H3,2-propynl  1.8223-5
 C3H4,allene     6.5104-7
 C3H4,propyne    1.3725-6
 C3H4,cyclo-     1.7392-8
 C3H5,allyl      1.5441-8
 C3H6,propylene  4.1012-9
 C3H6,cyclo-     3.294-11
 C3H6O,propylox  2.208-16
 C3H6O,acetone   8.557-14
 C3H6O,propanal  1.286-13
 C3H7,n-propyl   3.250-12
 C3H7,i-propyl   2.007-12
 C3H8            7.522-13
 C3O2            3.3548-8
 *C4             3.7606-9
 C4H2,butadiyne  5.0492-5
 C4H4,1,3-cyclo- 1.505-10
 C4H6,butadiene  6.969-10
 C4H6,1butyne    1.221-10
 C4H6,2butyne    5.769-11
 C4H6,cyclo-     2.578-12
 C4H8,1-butene   3.084-13
 C4H8,cis2-buten 9.482-14
 C4H8,tr2-butene 1.078-13
 C4H8,isobutene  1.044-13
 C4H8,cyclo-     3.114-16
 C4H9,n-butyl    4.403-16
 C4H9,i-butyl    2.018-16
 C4H9,s-butyl    2.724-16
 *C5             9.1401-9
 C5H6,1,3cyclo-  7.710-12
 C5H8,cyclo-     1.767-15
 C6H2            3.5421-7
 C6H5,phenyl     3.377-12
 C6H5O,phenoxy   3.497-16
 C6H6            4.681-12
 C6H5OH,phenol   2.728-16
 C7H7,benzyl     1.200-14
 C7H8            1.435-15
 C8H8,styrene    2.810-16
 *H              2.4023-2
 HCO             3.0235-5
 HCCO            9.6254-7
 HO2             8.880-14
 *H2             4.8143-1
 HCHO,formaldehy 3.6234-6
 HCOOH           1.0293-9
 H2O             1.5008-4
 H2O2            5.818-14
 *O              8.0504-8
 *OH             2.8920-6
 *O2             9.864-12

  * THERMODYNAMIC PROPERTIES FITTED TO 20000.K


                     DETONATION PROPERTIES OF AN IDEAL REACTING GAS
 CASE =                

             REACTANT                       MOLES         ENERGY      TEMP
                                                         KJ/KG-MOL      K
 FUEL        C2H4                         1.0000000     52579.505    300.000
 OXIDANT     O2                           3.0000000        54.358    300.000

 O/F=    1.06936  %FUEL= 48.324163  R,EQ.RATIO= 3.200000  PHI,EQ.RATIO= 3.200000

 UNBURNED GAS

 P1, BAR           1.0000
 T1, K             300.00
 H1, KJ/KG         906.61
 M1, (1/n)         29.962
 GAMMA1            1.2956
 SON VEL1,M/SEC     328.4

 BURNED GAS

 P, BAR            36.260
 T, K             3011.62
 RHO, KG/CU M    2.1505 0
 H, KJ/KG         3194.09
 U, KJ/KG         1508.01
 G, KJ/KG        -40595.1
 S, KJ/(KG)(K)    14.5401

 M, (1/n)          14.851
 MW, MOL WT        14.851
 (dLV/dLP)t      -1.00552
 (dLV/dLT)p        1.0915
 Cp, KJ/(KG)(K)    3.4596
 GAMMAs            1.2304
 SON VEL,M/SEC     1440.3

 DETONATION PARAMETERS

 P/P1              36.260
 T/T1              10.039
 M/M1              0.4957
 RHO/RHO1          1.7903
 DET MACH NUMBER   7.8520
 DET VEL,M/SEC     2578.7

 MOLE FRACTIONS

 *C              1.0771-6
 *CH             1.9879-6
 CH2             2.3699-5
 CH3             2.8488-4
 CH2OH           3.1336-9
 CH3O            7.466-10
 CH4             4.7693-4
 CH3OH           1.1759-9
 *CO             4.7949-1
 *CO2            1.4046-5
 COOH            9.521-10
 *C2             4.6549-7
 C2H             1.0365-4
 C2H2,acetylene  1.4956-2
 C2H2,vinylidene 4.8453-5
 CH2CO,ketene    1.1504-5
 O(CH)2O         6.007-12
 C2H3,vinyl      1.5951-5
 CH3CO,acetyl    2.0948-8
 C2H4            4.3431-5
 C2H4O,ethylen-o 2.064-12
 CH3CHO,ethanal  2.4915-9
 CH3COOH         9.547-14
 C2H5            8.1453-8
 C2H6            2.4205-8
 C2H5OH          2.943-13
 CH3OCH3         6.106-15
 C2O             2.4232-6
 *C3             3.2128-6
 C3H3,1-propynl  8.4629-8
 C3H3,2-propynl  4.9650-5
 C3H4,allene     2.0455-6
 C3H4,propyne    4.3491-6
 C3H4,cyclo-     4.9667-8
 C3H5,allyl      4.8975-8
 C3H6,propylene  1.5224-8
 C3H6,cyclo-     1.169-10
 C3H6O,propylox  4.839-16
 C3H6O,acetone   2.179-13
 C3H6O,propanal  3.135-13
 C3H7,n-propyl   1.088-11
 C3H7,i-propyl   6.821-12
 C3H8            3.115-12
 C3O2            4.1879-8
 *C4             7.6618-9
 C4H2,butadiyne  1.9124-4
 C4H4,1,3-cyclo- 6.003-10
 C4H6,butadiene  3.4722-9
 C4H6,1butyne    6.061-10
 C4H6,2butyne    2.933-10
 C4H6,cyclo-     1.283-11
 C4H8,1-butene   1.791-12
 C4H8,cis2-buten 5.581-13
 C4H8,tr2-butene 6.341-13
 C4H8,isobutene  6.177-13
 C4H8,cyclo-     1.738-15
 C4H9,n-butyl    2.335-15
 C4H9,i-butyl    1.080-15
 C4H9,s-butyl    1.450-15
 C4H9,t-butyl    1.801-16
 C4H10,n-butane  4.276-16
 C4H10,isobutane 1.159-16
 *C5             2.8879-8
 C5H6,1,3cyclo-  6.187-11
 C5H8,cyclo-     1.541-14
 C5H10,1-pentene 1.597-16
 C6H2            2.5945-6
 C6H5,phenyl     3.472-11
 C6H5O,phenoxy   2.581-15
 C6H6            6.296-11
 C6H5OH,phenol   2.339-15
 C7H7,benzyl     2.145-13
 C7H8            3.069-14
 C8H8,styrene    8.576-15
 C10H8,naphthale 2.136-16
 *H              1.8956-2
 HCO             2.4833-5
 HCCO            1.0668-6
 HO2             2.484-14
 *H2             4.8518-1
 HCHO,formaldehy 3.4746-6
 HCOOH           6.883-10
 H2O             1.0553-4
 H2O2            1.898-14
 *O              3.2858-8
 *OH             1.4962-6
 *O2             2.824-12

  * THERMODYNAMIC PROPERTIES FITTED TO 20000.K


                     DETONATION PROPERTIES OF AN IDEAL REACTING GAS
 CASE =                

             REACTANT                       MOLES         ENERGY      TEMP
                                                         KJ/KG-MOL      K
 FUEL        C2H4                         1.0000000     52579.505    300.000
 OXIDANT     O2                           3.0000000        54.358    300.000

 O/F=    1.03695  %FUEL= 49.092926  R,EQ.RATIO= 3.300000  PHI,EQ.RATIO= 3.300000

 UNBURNED GAS

 P1, BAR           1.0000
 T1, K             300.00
 H1, KJ/KG         921.00
 M1, (1/n)         29.932
 GAMMA1            1.2945
 SON VEL1,M/SEC     328.4

 BURNED GAS

 P, BAR            35.068
 T, K             2924.77
 RHO, KG/CU M    2.1446 0
 H, KJ/KG         3134.76
 U, KJ/KG         1499.60
 G, KJ/KG        -39364.8
 S, KJ/(KG)(K)    14.5309

 M, (1/n)          14.872
 MW, MOL WT        14.872
 (dLV/dLP)t      -1.00474
 (dLV/dLT)p        1.0763
 Cp, KJ/(KG)(K)    3.3304
 GAMMAs            1.2342
 SON VEL,M/SEC     1420.6

 DETONATION PARAMETERS

 P/P1              35.068
 T/T1               9.749
 M/M1              0.4969
 RHO/RHO1          1.7872
 DET MACH NUMBER   7.7300
 DET VEL,M/SEC     2538.8

 MOLE FRACTIONS

 *C              6.5696-7
 *CH             1.3846-6
 CH2             2.0982-5
 CH3             3.3253-4
 CH2OH           2.6646-9
 CH3O            5.993-10
 CH4             7.0253-4
 CH3OH           1.2242-9
 *CO             4.7305-1
 *CO2            1.1451-5
 COOH            6.199-10
 *C2             3.4569-7
 C2H             1.0313-4
 C2H2,acetylene  2.1915-2
 C2H2,vinylidene 5.7848-5
 CH2CO,ketene    1.4073-5
 O(CH)2O         5.267-12
 C2H3,vinyl      2.1465-5
 CH3CO,acetyl    2.3964-8
 C2H4            7.6939-5
 C2H4O,ethylen-o 2.450-12
 CH3CHO,ethanal  3.4101-9
 CH3COOH         1.050-13
 C2H5            1.3185-7
 C2H6            4.8971-8
 C2H5OH          4.236-13
 CH3OCH3         8.291-15
 C2O             2.0247-6
 *C3             3.3323-6
 C3H3,1-propynl  1.3172-7
 C3H3,2-propynl  8.7859-5
 C3H4,allene     4.2113-6
 C3H4,propyne    9.0346-6
 C3H4,cyclo-     9.2411-8
 C3H5,allyl      1.0188-7
 C3H6,propylene  3.7413-8
 C3H6,cyclo-     2.739-10
 C3H6O,propylox  8.033-16
 C3H6O,acetone   4.241-13
 C3H6O,propanal  5.825-13
 C3H7,n-propyl   2.398-11
 C3H7,i-propyl   1.526-11
 C3H8            8.598-12
 C3O2            4.5172-8
 *C4             8.4644-9
 C4H2,butadiyne  4.0760-4
 C4H4,1,3-cyclo- 1.3513-9
 C4H6,butadiene  9.9609-9
 C4H6,1butyne    1.7214-9
 C4H6,2butyne    8.544-10
 C4H6,cyclo-     3.654-11
 C4H8,1-butene   6.009-12
 C4H8,cis2-buten 1.900-12
 C4H8,tr2-butene 2.156-12
 C4H8,isobutene  2.115-12
 C4H8,cyclo-     5.595-15
 C4H9,n-butyl    7.118-15
 C4H9,i-butyl    3.322-15
 C4H9,s-butyl    4.434-15
 C4H9,t-butyl    5.687-16
 C4H10,n-butane  1.607-15
 C4H10,isobutane 4.398-16
 *C5             4.3117-8
 C5H6,1,3cyclo-  2.485-10
 C5H8,cyclo-     6.761-14
 C5H10,1-pentene 7.354-16
 C6H2            8.0281-6
 C6H5,phenyl     1.540-10
 C6H5O,phenoxy   9.517-15
 C6H6            3.713-10
 C6H5OH,phenol   1.011-14
 C7H7,benzyl     1.454-12
 C7H8            2.515-13
 C8H8,styrene    8.674-14
 C10H8,naphthale 3.998-15
 *H              1.4727-2
 HCO             2.0168-5
 HCCO            1.0112-6
 HO2             8.959-15
 *H2             4.8833-1
 HCHO,formaldehy 3.3262-6
 HCOOH           5.310-10
 H2O             8.5616-5
 H2O2            8.055-15
 *O              1.4983-8
 *OH             8.7683-7
 *O2             1.044-12

  * THERMODYNAMIC PROPERTIES FITTED TO 20000.K


                     DETONATION PROPERTIES OF AN IDEAL REACTING GAS
 CASE =                

             REACTANT                       MOLES         ENERGY      TEMP
                                                         KJ/KG-MOL      K
 FUEL        C2H4                         1.0000000     52579.505    300.000
 OXIDANT     O2                           3.0000000        54.358    300.000

 O/F=    1.00645  %FUEL= 49.839151  R,EQ.RATIO= 3.400000  PHI,EQ.RATIO= 3.400000

 UNBURNED GAS

 P1, BAR           1.0000
 T1, K             300.00
 H1, KJ/KG         934.98
 M1, (1/n)         29.903
 GAMMA1            1.2934
 SON VEL1,M/SEC     328.5

 BURNED GAS

 P, BAR            35.624
 T, K             2896.23
 RHO, KG/CU M    2.1997 0
 H, KJ/KG         3166.08
 U, KJ/KG         1546.57
 G, KJ/KG        -38894.8
 S, KJ/(KG)(K)    14.5226

 M, (1/n)          14.869
 MW, MOL WT        14.677
 (dLV/dLP)t      -1.00454
 (dLV/dLT)p        1.0659
 Cp, KJ/(KG)(K)    4.3631
 GAMMAs            1.1643
 SON VEL,M/SEC     1373.1

 DETONATION PARAMETERS

 P/P1              35.624
 T/T1               9.654
 M/M1              0.4973
 RHO/RHO1          1.8349
 DET MACH NUMBER   7.6706
 DET VEL,M/SEC     2519.5

 MOLE FRACTIONS

 *C              5.0453-7
 *CH             1.1352-6
 CH2             1.9049-5
 CH3             3.3857-4
 CH2OH           2.6156-9
 CH3O            5.770-10
 CH4             7.9046-4
 CH3OH           1.3139-9
 *CO             4.5999-1
 *CO2            1.1210-5
 COOH            5.734-10
 *C2             2.6879-7
 C2H             9.0416-5
 C2H2,acetylene  2.2377-2
 C2H2,vinylidene 5.5066-5
 CH2CO,ketene    1.4515-5
 O(CH)2O         5.210-12
 C2H3,vinyl      2.1719-5
 CH3CO,acetyl    2.4649-8
 C2H4            8.7261-5
 C2H4O,ethylen-o 2.604-12
 CH3CHO,ethanal  3.8049-9
 CH3COOH         1.168-13
 C2H5            1.4794-7
 C2H6            6.0506-8
 C2H5OH          5.006-13
 CH3OCH3         9.604-15
 C2O             1.7612-6
 *C3             2.7490-6
 C3H3,1-propynl  1.3260-7
 C3H3,2-propynl  9.2417-5
 C3H4,allene     4.7600-6
 C3H4,propyne    1.0243-5
 C3H4,cyclo-     1.0090-7
 C3H5,allyl      1.1792-7
 C3H6,propylene  4.6767-8
 C3H6,cyclo-     3.370-10
 C3H6O,propylox  9.436-16
 C3H6O,acetone   5.259-13
 C3H6O,propanal  7.111-13
 C3H7,n-propyl   2.946-11
 C3H7,i-propyl   1.885-11
 C3H8            1.164-11
 C3O2            4.3610-8
 *C4             6.7563-9
 C4H2,butadiyne  4.2394-4
 C4H4,1,3-cyclo- 1.4908-9
 C4H6,butadiene  1.2444-8
 C4H6,1butyne    2.1403-9
 C4H6,2butyne    1.0717-9
 C4H6,cyclo-     4.548-11
 C4H8,1-butene   8.235-12
 C4H8,cis2-buten 2.616-12
 C4H8,tr2-butene 2.968-12
 C4H8,isobutene  2.918-12
 C4H8,cyclo-     7.560-15
 C4H9,n-butyl    9.630-15
 C4H9,i-butyl    4.509-15
 C4H9,s-butyl    6.006-15
 C4H9,t-butyl    7.787-16
 C4H10,n-butane  2.384-15
 C4H10,isobutane 6.544-16
 *C5             3.6107-8
 C5H6,1,3cyclo-  3.293-10
 C5H8,cyclo-     9.614-14
 C5H10,1-pentene 1.107-15
 C6H2            8.5000-6
 C6H5,phenyl     1.959-10
 C6H5O,phenoxy   1.221-14
 C6H6            5.311-10
 C6H5OH,phenol   1.397-14
 C7H7,benzyl     2.107-12
 C7H8            3.968-13
 C8H8,styrene    1.391-13
 C10H8,naphthale 7.097-15
 *H              1.3241-2
 HCO             1.8722-5
 HCCO            9.3685-7
 HO2             7.154-15
 *H2             4.8936-1
 HCHO,formaldehy 3.3326-6
 HCOOH           5.310-10
 H2O             8.5634-5
 H2O2            6.937-15
 *O              1.1825-8
 *OH             7.6916-7
 *O2             8.238-13
 C(gr)           1.2940-2

  * THERMODYNAMIC PROPERTIES FITTED TO 20000.K


                     DETONATION PROPERTIES OF AN IDEAL REACTING GAS
 CASE =                

             REACTANT                       MOLES         ENERGY      TEMP
                                                         KJ/KG-MOL      K
 FUEL        C2H4                         1.0000000     52579.505    300.000
 OXIDANT     O2                           3.0000000        54.358    300.000

 O/F=    0.97770  %FUEL= 50.563815  R,EQ.RATIO= 3.500000  PHI,EQ.RATIO= 3.500000

 UNBURNED GAS

 P1, BAR           1.0000
 T1, K             300.00
 H1, KJ/KG         948.55
 M1, (1/n)         29.874
 GAMMA1            1.2924
 SON VEL1,M/SEC     328.5

 BURNED GAS

 P, BAR            35.202
 T, K             2866.61
 RHO, KG/CU M    2.1953 0
 H, KJ/KG         3155.37
 U, KJ/KG         1551.84
 G, KJ/KG        -38453.8
 S, KJ/(KG)(K)    14.5151

 M, (1/n)          14.864
 MW, MOL WT        14.416
 (dLV/dLP)t      -1.00431
 (dLV/dLT)p        1.0617
 Cp, KJ/(KG)(K)    4.2872
 GAMMAs            1.1665
 SON VEL,M/SEC     1367.7

 DETONATION PARAMETERS

 P/P1              35.202
 T/T1               9.555
 M/M1              0.4975
 RHO/RHO1          1.8330
 DET MACH NUMBER   7.6315
 DET VEL,M/SEC     2506.9

 MOLE FRACTIONS

 *C              3.6953-7
 *CH             8.7990-7
 CH2             1.6241-5
 CH3             3.2180-4
 CH2OH           2.4621-9
 CH3O            5.321-10
 CH4             8.2487-4
 CH3OH           1.3426-9
 *CO             4.4528-1
 *CO2            1.1251-5
 COOH            5.351-10
 *C2             1.8847-7
 C2H             7.1094-5
 C2H2,acetylene  2.0418-2
 C2H2,vinylidene 4.6643-5
 CH2CO,ketene    1.3780-5
 O(CH)2O         4.871-12
 C2H3,vinyl      1.9380-5
 CH3CO,acetyl    2.3040-8
 C2H4            8.6762-5
 C2H4O,ethylen-o 2.489-12
 CH3CHO,ethanal  3.8278-9
 CH3COOH         1.206-13
 C2H5            1.4360-7
 C2H6            6.4226-8
 C2H5OH          5.219-13
 CH3OCH3         9.802-15
 C2O             1.4317-6
 *C3             1.9391-6
 C3H3,1-propynl  1.1121-7
 C3H3,2-propynl  8.1191-5
 C3H4,allene     4.4561-6
 C3H4,propyne    9.6201-6
 C3H4,cyclo-     9.1061-8
 C3H5,allyl      1.1178-7
 C3H6,propylene  4.7493-8
 C3H6,cyclo-     3.365-10
 C3H6O,propylox  9.237-16
 C3H6O,acetone   5.452-13
 C3H6O,propanal  7.250-13
 C3H7,n-propyl   2.900-11
 C3H7,i-propyl   1.867-11
 C3H8            1.255-11
 C3O2            3.8513-8
 *C4             4.3496-9
 C4H2,butadiyne  3.5219-4
 C4H4,1,3-cyclo- 1.2854-9
 C4H6,butadiene  1.1941-8
 C4H6,1butyne    2.0420-9
 C4H6,2butyne    1.0321-9
 C4H6,cyclo-     4.346-11
 C4H8,1-butene   8.493-12
 C4H8,cis2-buten 2.712-12
 C4H8,tr2-butene 3.076-12
 C4H8,isobutene  3.031-12
 C4H8,cyclo-     7.682-15
 C4H9,n-butyl    9.674-15
 C4H9,i-butyl    4.545-15
 C4H9,s-butyl    6.041-15
 C4H9,t-butyl    7.924-16
 C4H10,n-butane  2.606-15
 C4H10,isobutane 7.179-16
 *C5             2.3108-8
 C5H6,1,3cyclo-  3.177-10
 C5H8,cyclo-     9.745-14
 C5H10,1-pentene 1.161-15
 C6H2            6.4254-6
 C6H5,phenyl     1.731-10
 C6H5O,phenoxy   1.121-14
 C6H6            5.250-10
 C6H5OH,phenol   1.370-14
 C7H7,benzyl     1.970-12
 C7H8            4.008-13
 C8H8,styrene    1.351-13
 C10H8,naphthale 6.854-15
 *H              1.1976-2
 HCO             1.7037-5
 HCCO            8.0397-7
 HO2             6.047-15
 *H2             4.9021-1
 HCHO,formaldehy 3.2468-6
 HCOOH           5.316-10
 H2O             8.8131-5
 H2O2            6.273-15
 *O              9.7121-9
 *OH             6.9767-7
 *O2             6.965-13
 C(gr)           3.0134-2

  * THERMODYNAMIC PROPERTIES FITTED TO 20000.K


                     DETONATION PROPERTIES OF AN IDEAL REACTING GAS
 CASE =                

             REACTANT                       MOLES         ENERGY      TEMP
                                                         KJ/KG-MOL      K
 FUEL        C2H4                         1.0000000     52579.505    300.000
 OXIDANT     O2                           3.0000000        54.358    300.000

 O/F=    0.95054  %FUEL= 51.267839  R,EQ.RATIO= 3.600000  PHI,EQ.RATIO= 3.600000

 UNBURNED GAS

 P1, BAR           1.0000
 T1, K             300.00
 H1, KJ/KG         961.73
 M1, (1/n)         29.847
 GAMMA1            1.2914
 SON VEL1,M/SEC     328.5

 BURNED GAS

 P, BAR            34.791
 T, K             2837.65
 RHO, KG/CU M    2.1910 0
 H, KJ/KG         3144.85
 U, KJ/KG         1556.92
 G, KJ/KG        -38021.7
 S, KJ/(KG)(K)    14.5073

 M, (1/n)          14.858
 MW, MOL WT        14.173
 (dLV/dLP)t      -1.00411
 (dLV/dLT)p        1.0578
 Cp, KJ/(KG)(K)    4.2152
 GAMMAs            1.1688
 SON VEL,M/SEC     1362.3

 DETONATION PARAMETERS

 P/P1              34.791
 T/T1               9.459
 M/M1              0.4978
 RHO/RHO1          1.8310
 DET MACH NUMBER   7.5932
 DET VEL,M/SEC     2494.5

 MOLE FRACTIONS

 *C              2.7100-7
 *CH             6.8250-7
 CH2             1.3847-5
 CH3             3.0569-4
 CH2OH           2.3173-9
 CH3O            4.906-10
 CH4             8.5990-4
 CH3OH           1.3709-9
 *CO             4.3154-1
 *CO2            1.1311-5
 COOH            5.000-10
 *C2             1.3233-7
 C2H             5.5938-5
 C2H2,acetylene  1.8629-2
 C2H2,vinylidene 3.9508-5
 CH2CO,ketene    1.3086-5
 O(CH)2O         4.557-12
 C2H3,vinyl      1.7284-5
 CH3CO,acetyl    2.1535-8
 C2H4            8.6172-5
 C2H4O,ethylen-o 2.377-12
 CH3CHO,ethanal  3.8482-9
 CH3COOH         1.245-13
 C2H5            1.3918-7
 C2H6            6.8034-8
 C2H5OH          5.431-13
 CH3OCH3         9.989-15
 C2O             1.1656-6
 *C3             1.3694-6
 C3H3,1-propynl  9.3222-8
 C3H3,2-propynl  7.1293-5
 C3H4,allene     4.1674-6
 C3H4,propyne    9.0258-6
 C3H4,cyclo-     8.2104-8
 C3H5,allyl      1.0581-7
 C3H6,propylene  4.8133-8
 C3H6,cyclo-     3.353-10
 C3H6O,propylox  9.029-16
 C3H6O,acetone   5.643-13
 C3H6O,propanal  7.379-13
 C3H7,n-propyl   2.849-11
 C3H7,i-propyl   1.844-11
 C3H8            1.348-11
 C3O2            3.4072-8
 *C4             2.8042-9
 C4H2,butadiyne  2.9260-4
 C4H4,1,3-cyclo- 1.1073-9
 C4H6,butadiene  1.1444-8
 C4H6,1butyne    1.9444-9
 C4H6,2butyne    9.921-10
 C4H6,cyclo-     4.144-11
 C4H8,1-butene   8.733-12
 C4H8,cis2-buten 2.803-12
 C4H8,tr2-butene 3.178-12
 C4H8,isobutene  3.139-12
 C4H8,cyclo-     7.784-15
 C4H9,n-butyl    9.687-15
 C4H9,i-butyl    4.566-15
 C4H9,s-butyl    6.056-15
 C4H9,t-butyl    8.036-16
 C4H10,n-butane  2.839-15
 C4H10,isobutane 7.846-16
 *C5             1.4808-8
 C5H6,1,3cyclo-  3.059-10
 C5H8,cyclo-     9.850-14
 C5H10,1-pentene 1.213-15
 C6H2            4.8580-6
 C6H5,phenyl     1.528-10
 C6H5O,phenoxy   1.029-14
 C6H6            5.179-10
 C6H5OH,phenol   1.342-14
 C7H7,benzyl     1.838-12
 C7H8            4.037-13
 C8H8,styrene    1.308-13
 C10H8,naphthale 6.600-15
 *H              1.0837-2
 HCO             1.5517-5
 HCCO            6.9056-7
 HO2             5.119-15
 *H2             4.9097-1
 HCHO,formaldehy 3.1641-6
 HCOOH           5.325-10
 H2O             9.0720-5
 H2O2            5.678-15
 *O              7.9894-9
 *OH             6.3339-7
 *O2             5.901-13
 C(gr)           4.6130-2

  * THERMODYNAMIC PROPERTIES FITTED TO 20000.K



