
 *******************************************************************************

         NASA-GLENN CHEMICAL EQUILIBRIUM PROGRAM CEA2, MAY 21, 2004
                   BY  BONNIE MCBRIDE AND SANFORD GORDON
      REFS: NASA RP-1311, PART I, 1994 AND NASA RP-1311, PART II, 1996

 *******************************************************************************



 problem    phi,eq.ratio=3.7,3.8,3.9,4,
       det   t,k=300,  p,bar=1,
 react
   fuel=C2H5OH moles=1 t,k=300
   oxid=O2 moles=3 t,k=300
 output
      trace=1e-16 siunits short
 end


                     DETONATION PROPERTIES OF AN IDEAL REACTING GAS
 CASE =                

             REACTANT                       MOLES         ENERGY      TEMP
                                                         KJ/KG-MOL      K
 FUEL        C2H5OH                       1.0000000   -234828.916    300.000
 OXIDANT     O2                           3.0000000        54.358    300.000

 O/F=    0.56318  %FUEL= 63.972027  R,EQ.RATIO= 2.670103  PHI,EQ.RATIO= 3.700000

 UNBURNED GAS

 P1, BAR           1.0000
 T1, K             300.00
 H1, KJ/KG       -3260.29
 M1, (1/n)         39.769
 GAMMA1            1.2025
 SON VEL1,M/SEC     274.6

 BURNED GAS

 P, BAR            27.819
 T, K             1729.59
 RHO, KG/CU M    2.7870 0
 H, KJ/KG        -1938.05
 U, KJ/KG        -2936.25
 G, KJ/KG        -26079.5
 S, KJ/(KG)(K)    13.9579

 M, (1/n)          14.407
 (dLV/dLP)t      -1.00058
 (dLV/dLT)p        1.0048
 Cp, KJ/(KG)(K)    2.5936
 GAMMAs            1.2888
 SON VEL,M/SEC     1134.2

 DETONATION PARAMETERS

 P/P1              27.819
 T/T1               5.765
 M/M1              0.3623
 RHO/RHO1          1.7480
 DET MACH NUMBER   7.2194
 DET VEL,M/SEC     1982.7

 MOLE FRACTIONS

 *CH             1.741-15
 CH2             9.807-12
 CH3             1.5340-7
 CH2OH           1.248-10
 CH3O            8.327-12
 CH4             1.4416-4
 CH3OH           1.0386-8
 *CO             3.7795-1
 *CO2            2.2019-2
 COOH            6.7944-9
 C2H             7.062-15
 C2H2,acetylene  2.1071-8
 C2H2,vinylidene 3.591-13
 CH2CO,ketene    3.6246-8
 O(CH)2O         1.026-12
 HO(CO)2OH       1.172-15
 C2H3,vinyl      3.206-12
 CH3CO,acetyl    1.716-11
 C2H4            1.1490-8
 C2H4O,ethylen-o 5.789-15
 CH3CHO,ethanal  2.252-10
 CH3COOH         8.519-12
 OHCH2COOH       1.996-15
 C2H5            2.882-12
 C2H6            3.065-10
 C2H5OH          1.617-13
 CH3OCH3         7.841-16
 C2O             3.501-13
 C3H3,2-propynl  1.013-13
 C3H4,allene     2.512-13
 C3H4,propyne    6.627-13
 C3H4,cyclo-     4.887-16
 C3H5,allyl      1.074-14
 C3H6,propylene  2.678-13
 C3H6,cyclo-     6.822-16
 C3H6O,acetone   2.399-15
 C3H6O,propanal  1.111-15
 C3H8            1.743-15
 C3O2            8.214-12
 C4H2,butadiyne  3.479-16
 *H              2.5930-5
 HCO             1.9495-7
 HCCO            4.380-12
 HO2             6.884-15
 *H2             4.9738-1
 HCHO,formaldehy 2.2302-6
 HCOOH           4.7102-7
 H2O             1.0248-1
 H2O2            3.832-13
 *O              1.225-11
 *OH             3.4309-7
 *O2             1.128-12

  * THERMODYNAMIC PROPERTIES FITTED TO 20000.K


                     DETONATION PROPERTIES OF AN IDEAL REACTING GAS
 CASE =                

             REACTANT                       MOLES         ENERGY      TEMP
                                                         KJ/KG-MOL      K
 FUEL        C2H5OH                       1.0000000   -234828.916    300.000
 OXIDANT     O2                           3.0000000        54.358    300.000

 O/F=    0.54836  %FUEL= 64.584354  R,EQ.RATIO= 2.714286  PHI,EQ.RATIO= 3.800000

 UNBURNED GAS

 P1, BAR           1.0000
 T1, K             300.00
 H1, KJ/KG       -3291.52
 M1, (1/n)         39.861
 GAMMA1            1.2013
 SON VEL1,M/SEC     274.2

 BURNED GAS

 P, BAR            26.845
 T, K             1652.40
 RHO, KG/CU M    2.7893 0
 H, KJ/KG        -2019.58
 U, KJ/KG        -2982.01
 G, KJ/KG        -25058.1
 S, KJ/(KG)(K)    13.9425

 M, (1/n)          14.275
 (dLV/dLP)t      -1.00126
 (dLV/dLT)p        1.0107
 Cp, KJ/(KG)(K)    2.6211
 GAMMAs            1.2915
 SON VEL,M/SEC     1114.9

 DETONATION PARAMETERS

 P/P1              26.845
 T/T1               5.508
 M/M1              0.3581
 RHO/RHO1          1.7454
 DET MACH NUMBER   7.0976
 DET VEL,M/SEC     1946.0

 MOLE FRACTIONS

 *CH             4.285-16
 CH2             4.745-12
 CH3             1.6424-7
 CH2OH           9.152-11
 CH3O            5.385-12
 CH4             3.1679-4
 CH3OH           1.3957-8
 *CO             3.7804-1
 *CO2            2.1890-2
 COOH            3.7523-9
 C2H             3.167-15
 C2H2,acetylene  2.8301-8
 C2H2,vinylidene 2.683-13
 CH2CO,ketene    4.8492-8
 O(CH)2O         9.156-13
 HO(CO)2OH       8.968-16
 C2H3,vinyl      3.479-12
 CH3CO,acetyl    2.006-11
 C2H4            2.7753-8
 C2H4O,ethylen-o 7.823-15
 CH3CHO,ethanal  4.426-10
 CH3COOH         1.546-11
 OHCH2COOH       2.272-15
 C2H5            5.612-12
 C2H6            1.1508-9
 C2H5OH          3.936-13
 CH3OCH3         1.628-15
 C2O             1.548-13
 C3H3,2-propynl  1.604-13
 C3H4,allene     6.312-13
 C3H4,propyne    1.704-12
 C3H4,cyclo-     9.312-16
 C3H5,allyl      2.913-14
 C3H6,propylene  1.179-12
 C3H6,cyclo-     2.678-15
 C3H6O,acetone   9.172-15
 C3H6O,propanal  3.759-15
 C3H8            1.141-14
 C3O2            8.304-12
 C4H2,butadiyne  6.126-16
 C4H6,butadiene  3.572-16
 *H              1.2783-5
 HCO             1.1831-7
 HCCO            2.804-12
 HO2             1.107-15
 *H2             5.0545-1
 HCHO,formaldehy 2.2166-6
 HCOOH           4.3594-7
 H2O             9.4289-2
 H2O2            9.914-14
 *O              2.225-12
 *OH             1.2582-7
 *O2             1.878-13

  * THERMODYNAMIC PROPERTIES FITTED TO 20000.K


                     DETONATION PROPERTIES OF AN IDEAL REACTING GAS
 CASE =                

             REACTANT                       MOLES         ENERGY      TEMP
                                                         KJ/KG-MOL      K
 FUEL        C2H5OH                       1.0000000   -234828.916    300.000
 OXIDANT     O2                           3.0000000        54.358    300.000

 O/F=    0.53430  %FUEL= 65.176215  R,EQ.RATIO= 2.757576  PHI,EQ.RATIO= 3.900000

 UNBURNED GAS

 P1, BAR           1.0000
 T1, K             300.00
 H1, KJ/KG       -3321.70
 M1, (1/n)         39.951
 GAMMA1            1.2002
 SON VEL1,M/SEC     273.7

 BURNED GAS

 P, BAR            25.919
 T, K             1579.73
 RHO, KG/CU M    2.7935 0
 H, KJ/KG        -2097.80
 U, KJ/KG        -3025.60
 G, KJ/KG        -24092.4
 S, KJ/(KG)(K)    13.9231

 M, (1/n)          14.157
 (dLV/dLP)t      -1.00280
 (dLV/dLT)p        1.0247
 Cp, KJ/(KG)(K)    2.6954
 GAMMAs            1.2920
 SON VEL,M/SEC     1094.9

 DETONATION PARAMETERS

 P/P1              25.919
 T/T1               5.266
 M/M1              0.3543
 RHO/RHO1          1.7441
 DET MACH NUMBER   6.9760
 DET VEL,M/SEC     1909.6

 MOLE FRACTIONS

 *CH             1.005-16
 CH2             2.234-12
 CH3             1.7531-7
 CH2OH           6.643-11
 CH3O            3.440-12
 CH4             7.1067-4
 CH3OH           1.8928-8
 *CO             3.7798-1
 *CO2            2.1877-2
 COOH            2.0455-9
 C2H             1.377-15
 C2H2,acetylene  3.8108-8
 C2H2,vinylidene 1.971-13
 CH2CO,ketene    6.5334-8
 O(CH)2O         8.177-13
 HO(CO)2OH       6.907-16
 C2H3,vinyl      3.757-12
 CH3CO,acetyl    2.354-11
 C2H4            6.8426-8
 C2H4O,ethylen-o 1.066-14
 CH3CHO,ethanal  8.870-10
 CH3COOH         2.871-11
 OHCH2COOH       2.625-15
 C2H5            1.108-11
 C2H6            4.4718-9
 C2H5OH          9.837-13
 CH3OCH3         3.454-15
 C2O             6.661-14
 C3H3,2-propynl  2.554-13
 C3H4,allene     1.618-12
 C3H4,propyne    4.470-12
 C3H4,cyclo-     1.795-15
 C3H5,allyl      8.080-14
 C3H6,propylene  5.386-12
 C3H6,cyclo-     1.088-14
 C3H6O,acetone   3.643-14
 C3H6O,propanal  1.318-14
 C3H7,n-propyl   1.861-16
 C3H7,i-propyl   1.845-16
 C3H8            7.856-14
 C3O2            8.411-12
 C4H2,butadiyne  1.086-15
 C4H6,butadiene  1.949-15
 *H              6.1613-6
 HCO             7.0678-8
 HCCO            1.767-12
 HO2             1.696-16
 *H2             5.1275-1
 HCHO,formaldehy 2.2027-6
 HCOOH           4.0529-7
 H2O             8.6680-2
 H2O2            2.479-14
 *O              3.850-13
 *OH             4.4848-8
 *O2             2.984-14

  * THERMODYNAMIC PROPERTIES FITTED TO 20000.K


                     DETONATION PROPERTIES OF AN IDEAL REACTING GAS
 CASE =                

             REACTANT                       MOLES         ENERGY      TEMP
                                                         KJ/KG-MOL      K
 FUEL        C2H5OH                       1.0000000   -234828.916    300.000
 OXIDANT     O2                           3.0000000        54.358    300.000

 O/F=    0.52094  %FUEL= 65.748619  R,EQ.RATIO= 2.800000  PHI,EQ.RATIO= 4.000000

 UNBURNED GAS

 P1, BAR           1.0000
 T1, K             300.00
 H1, KJ/KG       -3350.88
 M1, (1/n)         40.039
 GAMMA1            1.1991
 SON VEL1,M/SEC     273.3

 BURNED GAS

 P, BAR            25.091
 T, K             1513.95
 RHO, KG/CU M    2.8021 0
 H, KJ/KG        -2170.62
 U, KJ/KG        -3066.05
 G, KJ/KG        -23214.5
 S, KJ/(KG)(K)    13.9000

 M, (1/n)          14.058
 (dLV/dLP)t      -1.00607
 (dLV/dLT)p        1.0560
 Cp, KJ/(KG)(K)    2.8738
 GAMMAs            1.2878
 SON VEL,M/SEC     1073.8

 DETONATION PARAMETERS

 P/P1              25.091
 T/T1               5.046
 M/M1              0.3511
 RHO/RHO1          1.7457
 DET MACH NUMBER   6.8585
 DET VEL,M/SEC     1874.5

 MOLE FRACTIONS

 CH2             1.056-12
 CH3             1.8608-7
 CH2OH           4.840-11
 CH3O            2.214-12
 CH4             1.5738-3
 CH3OH           2.5593-8
 *CO             3.7770-1
 *CO2            2.1982-2
 COOH            1.1293-9
 C2H             6.007-16
 C2H2,acetylene  5.0810-8
 C2H2,vinylidene 1.443-13
 CH2CO,ketene    8.7582-8
 O(CH)2O         7.345-13
 HO(CO)2OH       5.420-16
 C2H3,vinyl      4.027-12
 CH3CO,acetyl    2.755-11
 C2H4            1.6590-7
 C2H4O,ethylen-o 1.448-14
 CH3CHO,ethanal  1.7614-9
 CH3COOH         5.328-11
 OHCH2COOH       3.065-15
 C2H5            2.157-11
 C2H6            1.7008-8
 C2H5OH          2.432-12
 CH3OCH3         7.261-15
 C2O             2.891-14
 C3H3,2-propynl  4.012-13
 C3H4,allene     4.071-12
 C3H4,propyne    1.151-11
 C3H4,cyclo-     3.407-15
 C3H5,allyl      2.200-13
 C3H6,propylene  2.400-11
 C3H6,cyclo-     4.322-14
 C3H6O,acetone   1.421-13
 C3H6O,propanal  4.543-14
 C3H7,n-propyl   6.320-16
 C3H7,i-propyl   6.520-16
 C3H8            5.253-13
 C3O2            8.535-12
 C4H2,butadiyne  1.894-15
 C4H6,butadiene  1.035-14
 C4H6,1butyne    3.824-16
 C4H6,2butyne    4.734-16
 C4H8,1-butene   6.909-16
 C4H8,cis2-buten 3.396-16
 C4H8,tr2-butene 3.818-16
 C4H8,isobutene  4.637-16
 *H              2.9920-6
 HCO             4.2474-8
 HCCO            1.118-12
 *H2             5.1883-1
 HCHO,formaldehy 2.1895-6
 HCOOH           3.7983-7
 H2O             7.9907-2
 H2O2            6.351-15
 *O              6.825-14
 *OH             1.6221-8
 *O2             4.883-15

  * THERMODYNAMIC PROPERTIES FITTED TO 20000.K



