
 *******************************************************************************

         NASA-GLENN CHEMICAL EQUILIBRIUM PROGRAM CEA2, MAY 21, 2004
                   BY  BONNIE MCBRIDE AND SANFORD GORDON
      REFS: NASA RP-1311, PART I, 1994 AND NASA RP-1311, PART II, 1996

 *******************************************************************************



 problem    phi,eq.ratio=0.5,0.6,0.7,0.8,0.9,1,1.1,1.2,1.3,1.4,1.5,1.6,1.7,1.8,1.
 9,2,
       det   t,k=300,  p,bar=1,
 react
   fuel=C2H5OH moles=1 t,k=300
   oxid=O2 moles=3 t,k=300
 output
      trace=1e-16 siunits short
 end


                     DETONATION PROPERTIES OF AN IDEAL REACTING GAS
 CASE =                

             REACTANT                       MOLES         ENERGY      TEMP
                                                         KJ/KG-MOL      K
 FUEL        C2H5OH                       1.0000000   -234828.916    300.000
 OXIDANT     O2                           3.0000000        54.358    300.000

 O/F=    4.16756  %FUEL= 19.351508  R,EQ.RATIO= 0.538462  PHI,EQ.RATIO= 0.500000

 UNBURNED GAS

 P1, BAR           1.0000
 T1, K             300.00
 H1, KJ/KG        -985.05
 M1, (1/n)         34.009
 GAMMA1            1.3168
 SON VEL1,M/SEC     310.8

 BURNED GAS

 P, BAR            26.620
 T, K             3412.75
 RHO, KG/CU M    2.5254 0
 H, KJ/KG          461.80
 U, KJ/KG         -592.32
 G, KJ/KG        -34600.5
 S, KJ/(KG)(K)    10.2739

 M, (1/n)          26.919
 (dLV/dLP)t      -1.03831
 (dLV/dLT)p        1.7190
 Cp, KJ/(KG)(K)    5.9726
 GAMMAs            1.1293
 SON VEL,M/SEC     1091.1

 DETONATION PARAMETERS

 P/P1              26.620
 T/T1              11.376
 M/M1              0.7915
 RHO/RHO1          1.8522
 DET MACH NUMBER   6.5028
 DET VEL,M/SEC     2020.9

 MOLE FRACTIONS

 *C              2.610-11
 *CH             3.894-12
 CH2             2.443-12
 CH3             1.346-12
 CH2OH           1.991-12
 CH3O            6.013-13
 CH4             1.250-13
 CH3OH           4.616-14
 *CO             6.6289-2
 *CO2            1.5985-1
 COOH            3.6005-6
 C2H             1.090-16
 C2H2,acetylene  4.659-16
 CH2CO,ketene    2.809-14
 O(CH)2O         2.111-15
 HO(CO)2OH       1.720-14
 C2O             1.434-12
 C3O2            7.662-16
 *H              1.0956-2
 HCO             1.0138-6
 HCCO            5.222-14
 HO2             4.4315-4
 *H2             1.3704-2
 HCHO,formaldehy 1.0144-8
 HCOOH           1.8235-7
 H2O             2.6921-1
 H2O2            2.4266-5
 *O              4.4057-2
 *OH             1.0117-1
 *O2             3.3429-1
 O3              3.1592-6

  * THERMODYNAMIC PROPERTIES FITTED TO 20000.K


                     DETONATION PROPERTIES OF AN IDEAL REACTING GAS
 CASE =                

             REACTANT                       MOLES         ENERGY      TEMP
                                                         KJ/KG-MOL      K
 FUEL        C2H5OH                       1.0000000   -234828.916    300.000
 OXIDANT     O2                           3.0000000        54.358    300.000

 O/F=    3.47296  %FUEL= 22.356544  R,EQ.RATIO= 0.636364  PHI,EQ.RATIO= 0.600000

 UNBURNED GAS

 P1, BAR           1.0000
 T1, K             300.00
 H1, KJ/KG       -1138.28
 M1, (1/n)         34.344
 GAMMA1            1.3067
 SON VEL1,M/SEC     308.1

 BURNED GAS

 P, BAR            28.700
 T, K             3501.88
 RHO, KG/CU M    2.5547 0
 H, KJ/KG          409.87
 U, KJ/KG         -713.55
 G, KJ/KG        -36878.5
 S, KJ/(KG)(K)    10.6481

 M, (1/n)          25.918
 (dLV/dLP)t      -1.04684
 (dLV/dLT)p        1.8520
 Cp, KJ/(KG)(K)    6.8598
 GAMMAs            1.1281
 SON VEL,M/SEC     1125.8

 DETONATION PARAMETERS

 P/P1              28.700
 T/T1              11.673
 M/M1              0.7547
 RHO/RHO1          1.8555
 DET MACH NUMBER   6.7804
 DET VEL,M/SEC     2088.8

 MOLE FRACTIONS

 *C              8.423-11
 *CH             1.427-11
 CH2             9.348-12
 CH3             5.248-12
 CH2OH           6.113-12
 CH3O            1.935-12
 CH4             5.171-13
 CH3OH           1.530-13
 *CO             9.2075-2
 *CO2            1.5947-1
 COOH            5.3389-6
 C2H             7.117-16
 C2H2,acetylene  2.853-15
 CH2CO,ketene    1.222-13
 O(CH)2O         7.332-15
 HO(CO)2OH       3.190-14
 C2O             5.287-12
 C3O2            3.377-15
 *H              1.5836-2
 HCO             2.0473-6
 HCCO            2.194-13
 HO2             4.4039-4
 *H2             2.0406-2
 HCHO,formaldehy 2.2726-8
 HCOOH           2.9876-7
 H2O             2.9270-1
 H2O2            2.6740-5
 *O              4.7107-2
 *OH             1.1210-1
 *O2             2.5983-1
 O3              2.6552-6

  * THERMODYNAMIC PROPERTIES FITTED TO 20000.K


                     DETONATION PROPERTIES OF AN IDEAL REACTING GAS
 CASE =                

             REACTANT                       MOLES         ENERGY      TEMP
                                                         KJ/KG-MOL      K
 FUEL        C2H5OH                       1.0000000   -234828.916    300.000
 OXIDANT     O2                           3.0000000        54.358    300.000

 O/F=    2.97683  %FUEL= 25.145684  R,EQ.RATIO= 0.731343  PHI,EQ.RATIO= 0.700000

 UNBURNED GAS

 P1, BAR           1.0000
 T1, K             300.00
 H1, KJ/KG       -1280.50
 M1, (1/n)         34.661
 GAMMA1            1.2978
 SON VEL1,M/SEC     305.6

 BURNED GAS

 P, BAR            30.590
 T, K             3567.08
 RHO, KG/CU M    2.5813 0
 H, KJ/KG          357.38
 U, KJ/KG         -827.67
 G, KJ/KG        -38824.4
 S, KJ/(KG)(K)    10.9843

 M, (1/n)          25.027
 (dLV/dLP)t      -1.05352
 (dLV/dLT)p        1.9514
 Cp, KJ/(KG)(K)    7.5807
 GAMMAs            1.1279
 SON VEL,M/SEC     1156.1

 DETONATION PARAMETERS

 P/P1              30.590
 T/T1              11.890
 M/M1              0.7221
 RHO/RHO1          1.8577
 DET MACH NUMBER   7.0275
 DET VEL,M/SEC     2147.6

 MOLE FRACTIONS

 *C              2.012-10
 *CH             3.824-11
 CH2             2.652-11
 CH3             1.549-11
 CH2OH           1.472-11
 CH3O            4.816-12
 CH4             1.635-12
 CH3OH           3.992-13
 CH3OOH          1.315-16
 *CO             1.1751-1
 *CO2            1.5570-1
 COOH            7.0641-6
 *C2             3.054-16
 C2H             3.041-15
 C2H2,acetylene  1.197-14
 C2H2,vinylidene 1.120-16
 CH2CO,ketene    3.889-13
 O(CH)2O         1.923-14
 HO(CO)2OH       5.015-14
 CH3CO,acetyl    2.094-16
 C2O             1.422-11
 C3O2            1.055-14
 *H              2.0814-2
 HCO             3.4866-6
 HCCO            6.635-13
 HO2             4.1409-4
 *H2             2.8119-2
 HCHO,formaldehy 4.2744-8
 HCOOH           4.3535-7
 H2O             3.1208-1
 H2O2            2.7755-5
 *O              4.7081-2
 *OH             1.1794-1
 *O2             2.0030-1
 O3              2.0885-6

  * THERMODYNAMIC PROPERTIES FITTED TO 20000.K


                     DETONATION PROPERTIES OF AN IDEAL REACTING GAS
 CASE =                

             REACTANT                       MOLES         ENERGY      TEMP
                                                         KJ/KG-MOL      K
 FUEL        C2H5OH                       1.0000000   -234828.916    300.000
 OXIDANT     O2                           3.0000000        54.358    300.000

 O/F=    2.60472  %FUEL= 27.741387  R,EQ.RATIO= 0.823529  PHI,EQ.RATIO= 0.800000

 UNBURNED GAS

 P1, BAR           1.0000
 T1, K             300.00
 H1, KJ/KG       -1412.86
 M1, (1/n)         34.961
 GAMMA1            1.2898
 SON VEL1,M/SEC     303.3

 BURNED GAS

 P, BAR            32.322
 T, K             3615.09
 RHO, KG/CU M    2.6056 0
 H, KJ/KG          305.53
 U, KJ/KG         -934.93
 G, KJ/KG        -40501.9
 S, KJ/(KG)(K)    11.2881

 M, (1/n)          24.231
 (dLV/dLP)t      -1.05842
 (dLV/dLT)p        2.0206
 Cp, KJ/(KG)(K)    8.1470
 GAMMAs            1.1281
 SON VEL,M/SEC     1182.9

 DETONATION PARAMETERS

 P/P1              32.322
 T/T1              12.050
 M/M1              0.6931
 RHO/RHO1          1.8590
 DET MACH NUMBER   7.2495
 DET VEL,M/SEC     2199.1

 MOLE FRACTIONS

 *C              3.952-10
 *CH             8.369-11
 CH2             6.201-11
 CH3             3.825-11
 CH2OH           3.024-11
 CH3O            1.014-11
 CH4             4.353-12
 CH3OH           8.917-13
 CH3OOH          2.726-16
 *CO             1.4208-1
 *CO2            1.4973-1
 COOH            8.6583-6
 *C2             9.465-16
 C2H             9.891-15
 C2H2,acetylene  3.943-14
 C2H2,vinylidene 3.977-16
 CH2CO,ketene    1.013-12
 O(CH)2O         4.198-14
 HO(CO)2OH       7.048-14
 CH3CO,acetyl    6.560-16
 C2O             3.118-11
 C3O2            2.643-14
 *H              2.5709-2
 HCO             5.3146-6
 HCCO            1.624-12
 HO2             3.7323-4
 *H2             3.6861-2
 HCHO,formaldehy 7.1775-8
 HCOOH           5.8663-7
 H2O             3.2798-1
 H2O2            2.7546-5
 *O              4.4870-2
 *OH             1.1964-1
 *O2             1.5270-1
 O3              1.5562-6

  * THERMODYNAMIC PROPERTIES FITTED TO 20000.K


                     DETONATION PROPERTIES OF AN IDEAL REACTING GAS
 CASE =                

             REACTANT                       MOLES         ENERGY      TEMP
                                                         KJ/KG-MOL      K
 FUEL        C2H5OH                       1.0000000   -234828.916    300.000
 OXIDANT     O2                           3.0000000        54.358    300.000

 O/F=    2.31531  %FUEL= 30.163102  R,EQ.RATIO= 0.913043  PHI,EQ.RATIO= 0.900000

 UNBURNED GAS

 P1, BAR           1.0000
 T1, K             300.00
 H1, KJ/KG       -1536.35
 M1, (1/n)         35.246
 GAMMA1            1.2825
 SON VEL1,M/SEC     301.3

 BURNED GAS

 P, BAR            33.914
 T, K             3649.51
 RHO, KG/CU M    2.6281 0
 H, KJ/KG          254.50
 U, KJ/KG        -1035.92
 G, KJ/KG        -41948.1
 S, KJ/(KG)(K)    11.5639

 M, (1/n)          23.515
 (dLV/dLP)t      -1.06155
 (dLV/dLT)p        2.0614
 Cp, KJ/(KG)(K)    8.5617
 GAMMAs            1.1286
 SON VEL,M/SEC     1206.8

 DETONATION PARAMETERS

 P/P1              33.914
 T/T1              12.165
 M/M1              0.6672
 RHO/RHO1          1.8599
 DET MACH NUMBER   7.4503
 DET VEL,M/SEC     2244.6

 MOLE FRACTIONS

 *C              6.756-10
 *CH             1.587-10
 CH2             1.267-10
 CH3             8.349-11
 CH2OH           5.560-11
 CH3O            1.895-11
 CH4             1.031-11
 CH3OH           1.788-12
 CH3OOH          4.969-16
 *CO             1.6556-1
 *CO2            1.4234-1
 COOH            1.0035-5
 *C2             2.395-15
 C2H             2.663-14
 C2H2,acetylene  1.102-13
 C2H2,vinylidene 1.171-15
 CH2CO,ketene    2.299-12
 O(CH)2O         8.066-14
 HO(CO)2OH       9.122-14
 CH3CO,acetyl    1.743-15
 C2O             5.930-11
 C3O2            5.682-14
 *H              3.0373-2
 HCO             7.4922-6
 HCCO            3.431-12
 HO2             3.2436-4
 *H2             4.6695-2
 HCHO,formaldehy 1.1138-7
 HCOOH           7.4729-7
 H2O             3.4084-1
 H2O2            2.6340-5
 *O              4.1161-2
 *OH             1.1793-1
 *O2             1.1473-1
 O3              1.1026-6

  * THERMODYNAMIC PROPERTIES FITTED TO 20000.K


                     DETONATION PROPERTIES OF AN IDEAL REACTING GAS
 CASE =                

             REACTANT                       MOLES         ENERGY      TEMP
                                                         KJ/KG-MOL      K
 FUEL        C2H5OH                       1.0000000   -234828.916    300.000
 OXIDANT     O2                           3.0000000        54.358    300.000

 O/F=    2.08378  %FUEL= 32.427756  R,EQ.RATIO= 1.000000  PHI,EQ.RATIO= 1.000000

 UNBURNED GAS

 P1, BAR           1.0000
 T1, K             300.00
 H1, KJ/KG       -1651.82
 M1, (1/n)         35.516
 GAMMA1            1.2760
 SON VEL1,M/SEC     299.4

 BURNED GAS

 P, BAR            35.375
 T, K             3672.37
 RHO, KG/CU M    2.6490 0
 H, KJ/KG          204.13
 U, KJ/KG        -1131.29
 G, KJ/KG        -43185.2
 S, KJ/(KG)(K)    11.8151

 M, (1/n)          22.865
 (dLV/dLP)t      -1.06287
 (dLV/dLT)p        2.0743
 Cp, KJ/(KG)(K)    8.8194
 GAMMAs            1.1294
 SON VEL,M/SEC     1228.1

 DETONATION PARAMETERS

 P/P1              35.375
 T/T1              12.241
 M/M1              0.6438
 RHO/RHO1          1.8604
 DET MACH NUMBER   7.6321
 DET VEL,M/SEC     2284.7

 MOLE FRACTIONS

 *C              1.0386-9
 *CH             2.702-10
 CH2             2.343-10
 CH3             1.668-10
 CH2OH           9.411-11
 CH3O            3.244-11
 CH4             2.247-11
 CH3OH           3.314-12
 CH3OOH          8.206-16
 *CO             1.8783-1
 *CO2            1.3404-1
 COOH            1.1128-5
 *C2             5.207-15
 C2H             6.237-14
 C2H2,acetylene  2.735-13
 C2H2,vinylidene 3.010-15
 CH2CO,ketene    4.725-12
 O(CH)2O         1.409-13
 HO(CO)2OH       1.107-13
 C2H3,vinyl      1.524-16
 CH3CO,acetyl    4.108-15
 C2O             1.014-10
 C3O2            1.093-13
 *H              3.4667-2
 HCO             9.9599-6
 HCCO            6.502-12
 HO2             2.7229-4
 *H2             5.7714-2
 HCHO,formaldehy 1.6311-7
 HCOOH           9.1209-7
 H2O             3.5093-1
 H2O2            2.4353-5
 *O              3.6491-2
 *OH             1.1336-1
 *O2             8.4643-2
 O3              7.4242-7

  * THERMODYNAMIC PROPERTIES FITTED TO 20000.K


                     DETONATION PROPERTIES OF AN IDEAL REACTING GAS
 CASE =                

             REACTANT                       MOLES         ENERGY      TEMP
                                                         KJ/KG-MOL      K
 FUEL        C2H5OH                       1.0000000   -234828.916    300.000
 OXIDANT     O2                           3.0000000        54.358    300.000

 O/F=    1.89434  %FUEL= 34.550148  R,EQ.RATIO= 1.084507  PHI,EQ.RATIO= 1.100000

 UNBURNED GAS

 P1, BAR           1.0000
 T1, K             300.00
 H1, KJ/KG       -1760.04
 M1, (1/n)         35.774
 GAMMA1            1.2701
 SON VEL1,M/SEC     297.6

 BURNED GAS

 P, BAR            36.709
 T, K             3684.68
 RHO, KG/CU M    2.6684 0
 H, KJ/KG          153.99
 U, KJ/KG        -1221.69
 G, KJ/KG        -44225.5
 S, KJ/(KG)(K)    12.0443

 M, (1/n)          22.270
 (dLV/dLP)t      -1.06232
 (dLV/dLT)p        2.0586
 Cp, KJ/(KG)(K)    8.9079
 GAMMAs            1.1303
 SON VEL,M/SEC     1247.0

 DETONATION PARAMETERS

 P/P1              36.709
 T/T1              12.282
 M/M1              0.6225
 RHO/RHO1          1.8606
 DET MACH NUMBER   7.7965
 DET VEL,M/SEC     2320.1

 MOLE FRACTIONS

 *C              1.4635-9
 *CH             4.215-10
 CH2             4.006-10
 CH3             3.116-10
 CH2OH           1.494-10
 CH3O            5.179-11
 CH4             4.612-11
 CH3OH           5.788-12
 CH3OOH          1.251-15
 *CO             2.0882-1
 *CO2            1.2519-1
 COOH            1.1892-5
 *C2             1.003-14
 C2H             1.311-13
 C2H2,acetylene  6.222-13
 C2H2,vinylidene 6.973-15
 CH2CO,ketene    9.014-12
 O(CH)2O         2.288-13
 HO(CO)2OH       1.273-13
 C2H3,vinyl      3.915-16
 CH3CO,acetyl    8.841-15
 CH3CHO,ethanal  1.229-16
 CH3COOH         1.139-16
 C2O             1.596-10
 C3O2            1.929-13
 *H              3.8448-2
 HCO             1.2636-5
 HCCO            1.133-11
 HO2             2.2068-4
 *H2             7.0035-2
 HCHO,formaldehy 2.2850-7
 HCOOH           1.0758-6
 H2O             3.5843-1
 H2O2            2.1791-5
 *O              3.1295-2
 *OH             1.0645-1
 *O2             6.1065-2
 O3              4.7335-7

  * THERMODYNAMIC PROPERTIES FITTED TO 20000.K


                     DETONATION PROPERTIES OF AN IDEAL REACTING GAS
 CASE =                

             REACTANT                       MOLES         ENERGY      TEMP
                                                         KJ/KG-MOL      K
 FUEL        C2H5OH                       1.0000000   -234828.916    300.000
 OXIDANT     O2                           3.0000000        54.358    300.000

 O/F=    1.73648  %FUEL= 36.543275  R,EQ.RATIO= 1.166667  PHI,EQ.RATIO= 1.200000

 UNBURNED GAS

 P1, BAR           1.0000
 T1, K             300.00
 H1, KJ/KG       -1861.68
 M1, (1/n)         36.019
 GAMMA1            1.2646
 SON VEL1,M/SEC     295.9

 BURNED GAS

 P, BAR            37.913
 T, K             3686.85
 RHO, KG/CU M    2.6864 0
 H, KJ/KG          103.47
 U, KJ/KG        -1307.79
 G, KJ/KG        -45074.8
 S, KJ/(KG)(K)    12.2539

 M, (1/n)          21.721
 (dLV/dLP)t      -1.05985
 (dLV/dLT)p        2.0139
 Cp, KJ/(KG)(K)    8.8141
 GAMMAs            1.1316
 SON VEL,M/SEC     1263.7

 DETONATION PARAMETERS

 P/P1              37.913
 T/T1              12.290
 M/M1              0.6031
 RHO/RHO1          1.8604
 DET MACH NUMBER   7.9443
 DET VEL,M/SEC     2351.0

 MOLE FRACTIONS

 *C              1.9111-9
 *CH             6.104-10
 CH2             6.421-10
 CH3             5.526-10
 CH2OH           2.249-10
 CH3O            7.805-11
 CH4             9.058-11
 CH3OH           9.653-12
 CH3OOH          1.779-15
 *CO             2.2851-1
 *CO2            1.1607-1
 COOH            1.2298-5
 *C2             1.746-14
 C2H             2.524-13
 C2H2,acetylene  1.323-12
 C2H2,vinylidene 1.487-14
 CH2CO,ketene    1.623-11
 O(CH)2O         3.499-13
 HO(CO)2OH       1.399-13
 C2H3,vinyl      9.262-16
 CH3CO,acetyl    1.771-14
 C2H4            1.832-16
 CH3CHO,ethanal  2.728-16
 CH3COOH         2.144-16
 C2O             2.341-10
 C3O2            3.184-13
 *H              4.1564-2
 HCO             1.5415-5
 HCCO            1.844-11
 HO2             1.7230-4
 *H2             8.3782-2
 HCHO,formaldehy 3.0897-7
 HCOOH           1.2329-6
 H2O             3.6341-1
 H2O2            1.8857-5
 *O              2.5935-2
 *OH             9.7630-2
 *O2             4.2885-2
 O3              2.8417-7

  * THERMODYNAMIC PROPERTIES FITTED TO 20000.K


                     DETONATION PROPERTIES OF AN IDEAL REACTING GAS
 CASE =                

             REACTANT                       MOLES         ENERGY      TEMP
                                                         KJ/KG-MOL      K
 FUEL        C2H5OH                       1.0000000   -234828.916    300.000
 OXIDANT     O2                           3.0000000        54.358    300.000

 O/F=    1.60291  %FUEL= 38.418596  R,EQ.RATIO= 1.246575  PHI,EQ.RATIO= 1.300000

 UNBURNED GAS

 P1, BAR           1.0000
 T1, K             300.00
 H1, KJ/KG       -1957.30
 M1, (1/n)         36.252
 GAMMA1            1.2597
 SON VEL1,M/SEC     294.4

 BURNED GAS

 P, BAR            38.979
 T, K             3678.87
 RHO, KG/CU M    2.7030 0
 H, KJ/KG          51.812
 U, KJ/KG        -1390.26
 G, KJ/KG        -45733.9
 S, KJ/(KG)(K)    12.4456

 M, (1/n)          21.211
 (dLV/dLP)t      -1.05553
 (dLV/dLT)p        1.9411
 Cp, KJ/(KG)(K)    8.5325
 GAMMAs            1.1332
 SON VEL,M/SEC     1278.4

 DETONATION PARAMETERS

 P/P1              38.979
 T/T1              12.263
 M/M1              0.5851
 RHO/RHO1          1.8598
 DET MACH NUMBER   8.0756
 DET VEL,M/SEC     2377.5

 MOLE FRACTIONS

 *C              2.3255-9
 *CH             8.261-10
 CH2             9.730-10
 CH3             9.393-10
 CH2OH           3.235-10
 CH3O            1.119-10
 CH4             1.721-10
 CH3OH           1.551-11
 CH3OOH          2.377-15
 *CO             2.4685-1
 *CO2            1.0689-1
 COOH            1.2331-5
 *C2             2.776-14
 C2H             4.506-13
 C2H2,acetylene  2.666-12
 C2H2,vinylidene 2.963-14
 CH2CO,ketene    2.792-11
 O(CH)2O         5.088-13
 HO(CO)2OH       1.474-13
 C2H3,vinyl      2.050-15
 CH3CO,acetyl    3.348-14
 C2H4            4.548-16
 CH3CHO,ethanal  5.751-16
 CH3COOH         3.847-16
 OHCH2COOH       1.245-16
 C2O             3.232-10
 C3O2            4.970-13
 *H              4.3852-2
 HCO             1.8164-5
 HCCO            2.830-11
 HO2             1.2916-4
 *H2             9.9073-2
 HCHO,formaldehy 4.0562-7
 HCOOH           1.3778-6
 H2O             3.6589-1
 H2O2            1.5751-5
 *O              2.0716-2
 *OH             8.7368-2
 *O2             2.9177-2
 O3              1.5950-7

  * THERMODYNAMIC PROPERTIES FITTED TO 20000.K


                     DETONATION PROPERTIES OF AN IDEAL REACTING GAS
 CASE =                

             REACTANT                       MOLES         ENERGY      TEMP
                                                         KJ/KG-MOL      K
 FUEL        C2H5OH                       1.0000000   -234828.916    300.000
 OXIDANT     O2                           3.0000000        54.358    300.000

 O/F=    1.48841  %FUEL= 40.186258  R,EQ.RATIO= 1.324324  PHI,EQ.RATIO= 1.400000

 UNBURNED GAS

 P1, BAR           1.0000
 T1, K             300.00
 H1, KJ/KG       -2047.44
 M1, (1/n)         36.476
 GAMMA1            1.2551
 SON VEL1,M/SEC     293.0

 BURNED GAS

 P, BAR            39.899
 T, K             3660.48
 RHO, KG/CU M    2.7180 0
 H, KJ/KG         -1.8274
 U, KJ/KG        -1469.78
 G, KJ/KG        -46200.6
 S, KJ/(KG)(K)    12.6210

 M, (1/n)          20.733
 (dLV/dLP)t      -1.04967
 (dLV/dLT)p        1.8445
 Cp, KJ/(KG)(K)    8.0765
 GAMMAs            1.1354
 SON VEL,M/SEC     1291.0

 DETONATION PARAMETERS

 P/P1              39.899
 T/T1              12.202
 M/M1              0.5684
 RHO/RHO1          1.8587
 DET MACH NUMBER   8.1906
 DET VEL,M/SEC     2399.6

 MOLE FRACTIONS

 *C              2.6412-9
 *CH             1.0480-9
 CH2             1.4001-9
 CH3             1.5398-9
 CH2OH           4.467-10
 CH3O            1.531-10
 CH4             3.188-10
 CH3OH           2.413-11
 CH3OOH          2.994-15
 *CO             2.6383-1
 *CO2            9.7846-2
 COOH            1.2001-5
 *C2             4.053-14
 C2H             7.512-13
 C2H2,acetylene  5.140-12
 C2H2,vinylidene 5.557-14
 CH2CO,ketene    4.621-11
 O(CH)2O         7.075-13
 HO(CO)2OH       1.494-13
 C2H3,vinyl      4.285-15
 CH3CO,acetyl    6.017-14
 C2H4            1.083-15
 CH3CHO,ethanal  1.162-15
 CH3COOH         6.634-16
 OHCH2COOH       1.796-16
 C2O             4.219-10
 C3O2            7.395-13
 *H              4.5152-2
 HCO             2.0722-5
 HCCO            4.124-11
 HO2             9.2586-5
 *H2             1.1599-1
 HCHO,formaldehy 5.1901-7
 HCOOH           1.5050-6
 H2O             3.6585-1
 H2O2            1.2666-5
 *O              1.5897-2
 *OH             7.6154-2
 *O2             1.9138-2
 O3              8.3040-8

  * THERMODYNAMIC PROPERTIES FITTED TO 20000.K


                     DETONATION PROPERTIES OF AN IDEAL REACTING GAS
 CASE =                

             REACTANT                       MOLES         ENERGY      TEMP
                                                         KJ/KG-MOL      K
 FUEL        C2H5OH                       1.0000000   -234828.916    300.000
 OXIDANT     O2                           3.0000000        54.358    300.000

 O/F=    1.38919  %FUEL= 41.855272  R,EQ.RATIO= 1.400000  PHI,EQ.RATIO= 1.500000

 UNBURNED GAS

 P1, BAR           1.0000
 T1, K             300.00
 H1, KJ/KG       -2132.54
 M1, (1/n)         36.689
 GAMMA1            1.2509
 SON VEL1,M/SEC     291.6

 BURNED GAS

 P, BAR            40.660
 T, K             3631.51
 RHO, KG/CU M    2.7311 0
 H, KJ/KG         -57.236
 U, KJ/KG        -1546.02
 G, KJ/KG        -46473.9
 S, KJ/(KG)(K)    12.7816

 M, (1/n)          20.281
 (dLV/dLP)t      -1.04282
 (dLV/dLT)p        1.7323
 Cp, KJ/(KG)(K)    7.4865
 GAMMAs            1.1383
 SON VEL,M/SEC     1301.8

 DETONATION PARAMETERS

 P/P1              40.660
 T/T1              12.105
 M/M1              0.5528
 RHO/RHO1          1.8568
 DET MACH NUMBER   8.2886
 DET VEL,M/SEC     2417.2

 MOLE FRACTIONS

 *C              2.7998-9
 *CH             1.2473-9
 CH2             1.9175-9
 CH3             2.4434-9
 CH2OH           5.935-10
 CH3O            2.005-10
 CH4             5.788-10
 CH3OH           3.652-11
 CH3OOH          3.558-15
 *CO             2.7940-1
 *CO2            8.9087-2
 COOH            1.1339-5
 *C2             5.450-14
 C2H             1.174-12
 C2H2,acetylene  9.539-12
 C2H2,vinylidene 9.869-14
 CH2CO,ketene    7.400-11
 O(CH)2O         9.445-13
 HO(CO)2OH       1.460-13
 C2H3,vinyl      8.515-15
 CH3CO,acetyl    1.034-13
 C2H4            2.491-15
 CH3CHO,ethanal  2.267-15
 CH3COOH         1.106-15
 OHCH2COOH       2.480-16
 C2O             5.223-10
 C3O2            1.055-12
 *H              4.5345-2
 HCO             2.2920-5
 HCCO            5.726-11
 HO2             6.3221-5
 *H2             1.3456-1
 HCHO,formaldehy 6.4878-7
 HCOOH           1.6091-6
 H2O             3.6322-1
 H2O2            9.7777-6
 *O              1.1682-2
 *OH             6.4535-2
 *O2             1.2051-2
 O3              3.9829-8

  * THERMODYNAMIC PROPERTIES FITTED TO 20000.K


                     DETONATION PROPERTIES OF AN IDEAL REACTING GAS
 CASE =                

             REACTANT                       MOLES         ENERGY      TEMP
                                                         KJ/KG-MOL      K
 FUEL        C2H5OH                       1.0000000   -234828.916    300.000
 OXIDANT     O2                           3.0000000        54.358    300.000

 O/F=    1.30236  %FUEL= 43.433671  R,EQ.RATIO= 1.473684  PHI,EQ.RATIO= 1.600000

 UNBURNED GAS

 P1, BAR           1.0000
 T1, K             300.00
 H1, KJ/KG       -2213.02
 M1, (1/n)         36.893
 GAMMA1            1.2470
 SON VEL1,M/SEC     290.4

 BURNED GAS

 P, BAR            41.250
 T, K             3591.33
 RHO, KG/CU M    2.7427 0
 H, KJ/KG         -118.56
 U, KJ/KG        -1622.57
 G, KJ/KG        -46546.5
 S, KJ/(KG)(K)    12.9278

 M, (1/n)          19.854
 (dLV/dLP)t      -1.03563
 (dLV/dLT)p        1.6143
 Cp, KJ/(KG)(K)    6.8194
 GAMMAs            1.1421
 SON VEL,M/SEC     1310.6

 DETONATION PARAMETERS

 P/P1              41.250
 T/T1              11.971
 M/M1              0.5381
 RHO/RHO1          1.8544
 DET MACH NUMBER   8.3702
 DET VEL,M/SEC     2430.4

 MOLE FRACTIONS

 *C              2.7556-9
 *CH             1.3873-9
 CH2             2.4949-9
 CH3             3.7563-9
 CH2OH           7.587-10
 CH3O            2.513-10
 CH4             1.0329-9
 CH3OH           5.383-11
 CH3OOH          3.985-15
 *CO             2.9352-1
 *CO2            8.0801-2
 COOH            1.0398-5
 *C2             6.719-14
 C2H             1.719-12
 C2H2,acetylene  1.708-11
 C2H2,vinylidene 1.660-13
 CH2CO,ketene    1.149-10
 O(CH)2O         1.213-12
 HO(CO)2OH       1.377-13
 C2H3,vinyl      1.611-14
 CH3CO,acetyl    1.704-13
 C2H4            5.561-15
 CH3CHO,ethanal  4.283-15
 CH3COOH         1.789-15
 OHCH2COOH       3.285-16
 C2O             6.124-10
 C3O2            1.446-12
 *H              4.4309-2
 HCO             2.4565-5
 HCCO            7.578-11
 HO2             4.0916-5
 *H2             1.5469-1
 HCHO,formaldehy 7.9314-7
 HCOOH           1.6859-6
 H2O             3.5814-1
 H2O2            7.2209-6
 *O              8.1780-3
 *OH             5.3021-2
 *O2             7.2496-3
 O3              1.7437-8

  * THERMODYNAMIC PROPERTIES FITTED TO 20000.K


                     DETONATION PROPERTIES OF AN IDEAL REACTING GAS
 CASE =                

             REACTANT                       MOLES         ENERGY      TEMP
                                                         KJ/KG-MOL      K
 FUEL        C2H5OH                       1.0000000   -234828.916    300.000
 OXIDANT     O2                           3.0000000        54.358    300.000

 O/F=    1.22575  %FUEL= 44.928641  R,EQ.RATIO= 1.545455  PHI,EQ.RATIO= 1.700000

 UNBURNED GAS

 P1, BAR           1.0000
 T1, K             300.00
 H1, KJ/KG       -2289.25
 M1, (1/n)         37.088
 GAMMA1            1.2433
 SON VEL1,M/SEC     289.2

 BURNED GAS

 P, BAR            41.663
 T, K             3540.50
 RHO, KG/CU M    2.7522 0
 H, KJ/KG         -183.10
 U, KJ/KG        -1696.91
 G, KJ/KG        -46426.6
 S, KJ/(KG)(K)    13.0613

 M, (1/n)          19.446
 (dLV/dLP)t      -1.02879
 (dLV/dLT)p        1.5014
 Cp, KJ/(KG)(K)    6.1452
 GAMMAs            1.1469
 SON VEL,M/SEC     1317.6

 DETONATION PARAMETERS

 P/P1              41.663
 T/T1              11.802
 M/M1              0.5243
 RHO/RHO1          1.8510
 DET MACH NUMBER   8.4342
 DET VEL,M/SEC     2438.9

 MOLE FRACTIONS

 *C              2.5182-9
 *CH             1.4422-9
 CH2             3.0859-9
 CH3             5.5998-9
 CH2OH           9.338-10
 CH3O            3.015-10
 CH4             1.8144-9
 CH3OH           7.740-11
 CH3OOH          4.207-15
 *CO             3.0619-1
 *CO2            7.3074-2
 COOH            9.2582-6
 *C2             7.607-14
 C2H             2.361-12
 C2H2,acetylene  2.955-11
 C2H2,vinylidene 2.649-13
 CH2CO,ketene    1.736-10
 O(CH)2O         1.500-12
 HO(CO)2OH       1.257-13
 C2H3,vinyl      2.906-14
 CH3CO,acetyl    2.697-13
 C2H4            1.208-14
 CH3CHO,ethanal  7.859-15
 CH3COOH         2.816-15
 OHCH2COOH       4.184-16
 C2O             6.815-10
 C3O2            1.913-12
 *H              4.2107-2
 HCO             2.5528-5
 HCCO            9.575-11
 HO2             2.5065-5
 *H2             1.7617-1
 HCHO,formaldehy 9.4907-7
 HCOOH           1.7323-6
 H2O             3.5058-1
 H2O2            5.0959-6
 *O              5.4483-3
 *OH             4.2200-2
 *O2             4.1614-3
 O3              6.9573-9

  * THERMODYNAMIC PROPERTIES FITTED TO 20000.K


                     DETONATION PROPERTIES OF AN IDEAL REACTING GAS
 CASE =                

             REACTANT                       MOLES         ENERGY      TEMP
                                                         KJ/KG-MOL      K
 FUEL        C2H5OH                       1.0000000   -234828.916    300.000
 OXIDANT     O2                           3.0000000        54.358    300.000

 O/F=    1.15765  %FUEL= 46.346625  R,EQ.RATIO= 1.615385  PHI,EQ.RATIO= 1.800000

 UNBURNED GAS

 P1, BAR           1.0000
 T1, K             300.00
 H1, KJ/KG       -2361.56
 M1, (1/n)         37.275
 GAMMA1            1.2400
 SON VEL1,M/SEC     288.1

 BURNED GAS

 P, BAR            41.896
 T, K             3479.40
 RHO, KG/CU M    2.7599 0
 H, KJ/KG         -252.31
 U, KJ/KG        -1770.35
 G, KJ/KG        -46120.4
 S, KJ/(KG)(K)    13.1827

 M, (1/n)          19.057
 (dLV/dLP)t      -1.02273
 (dLV/dLT)p        1.4006
 Cp, KJ/(KG)(K)    5.5162
 GAMMAs            1.1526
 SON VEL,M/SEC     1322.8

 DETONATION PARAMETERS

 P/P1              41.896
 T/T1              11.598
 M/M1              0.5113
 RHO/RHO1          1.8469
 DET MACH NUMBER   8.4811
 DET VEL,M/SEC     2443.0

 MOLE FRACTIONS

 *C              2.1302-9
 *CH             1.3977-9
 CH2             3.6216-9
 CH3             8.0897-9
 CH2OH           1.1060-9
 CH3O            3.460-10
 CH4             3.1394-9
 CH3OH           1.086-10
 CH3OOH          4.184-15
 *CO             3.1740-1
 *CO2            6.6010-2
 COOH            8.0087-6
 *C2             7.886-14
 C2H             3.037-12
 C2H2,acetylene  4.944-11
 C2H2,vinylidene 4.008-13
 CH2CO,ketene    2.550-10
 O(CH)2O         1.790-12
 HO(CO)2OH       1.113-13
 C2H3,vinyl      4.999-14
 CH3CO,acetyl    4.100-13
 C2H4            2.554-14
 CH3CHO,ethanal  1.402-14
 CH3COOH         4.318-15
 OHCH2COOH       5.135-16
 C2O             7.193-10
 C3O2            2.445-12
 *H              3.8855-2
 HCO             2.5716-5
 HCCO            1.155-10
 HO2             1.4513-5
 *H2             1.9866-1
 HCHO,formaldehy 1.1120-6
 HCOOH           1.7476-6
 H2O             3.4080-1
 H2O2            3.4334-6
 *O              3.4471-3
 *OH             3.2501-2
 *O2             2.2764-3
 O3              2.5238-9

  * THERMODYNAMIC PROPERTIES FITTED TO 20000.K


                     DETONATION PROPERTIES OF AN IDEAL REACTING GAS
 CASE =                

             REACTANT                       MOLES         ENERGY      TEMP
                                                         KJ/KG-MOL      K
 FUEL        C2H5OH                       1.0000000   -234828.916    300.000
 OXIDANT     O2                           3.0000000        54.358    300.000

 O/F=    1.09673  %FUEL= 47.693421  R,EQ.RATIO= 1.683544  PHI,EQ.RATIO= 1.900000

 UNBURNED GAS

 P1, BAR           1.0000
 T1, K             300.00
 H1, KJ/KG       -2430.23
 M1, (1/n)         37.454
 GAMMA1            1.2368
 SON VEL1,M/SEC     287.0

 BURNED GAS

 P, BAR            41.956
 T, K             3408.99
 RHO, KG/CU M    2.7659 0
 H, KJ/KG         -326.10
 U, KJ/KG        -1842.97
 G, KJ/KG        -45641.5
 S, KJ/(KG)(K)    13.2929

 M, (1/n)          18.686
 (dLV/dLP)t      -1.01766
 (dLV/dLT)p        1.3153
 Cp, KJ/(KG)(K)    4.9626
 GAMMAs            1.1594
 SON VEL,M/SEC     1326.1

 DETONATION PARAMETERS

 P/P1              41.956
 T/T1              11.363
 M/M1              0.4989
 RHO/RHO1          1.8420
 DET MACH NUMBER   8.5115
 DET VEL,M/SEC     2442.8

 MOLE FRACTIONS

 *C              1.6663-9
 *CH             1.2616-9
 CH2             4.0304-9
 CH3             1.1322-8
 CH2OH           1.2612-9
 CH3O            3.801-10
 CH4             5.3522-9
 CH3OH           1.487-10
 CH3OOH          3.924-15
 *CO             3.2721-1
 *CO2            5.9660-2
 COOH            6.7389-6
 *C2             7.480-14
 C2H             3.658-12
 C2H2,acetylene  8.000-11
 C2H2,vinylidene 5.747-13
 CH2CO,ketene    3.649-10
 O(CH)2O         2.064-12
 HO(CO)2OH       9.596-14
 C2H3,vinyl      8.197-14
 CH3CO,acetyl    5.996-13
 C2H4            5.259-14
 CH3CHO,ethanal  2.434-14
 CH3COOH         6.467-15
 OHCH2COOH       6.088-16
 C2O             7.206-10
 C3O2            3.025-12
 *H              3.4790-2
 HCO             2.5121-5
 HCCO            1.331-10
 HO2             7.9446-6
 *H2             2.2173-1
 HCHO,formaldehy 1.2767-6
 HCOOH           1.7337-6
 H2O             3.2909-1
 H2O2            2.2096-6
 *O              2.0705-3
 *OH             2.4220-2
 *O2             1.1872-3
 O3              8.334-10

  * THERMODYNAMIC PROPERTIES FITTED TO 20000.K


                     DETONATION PROPERTIES OF AN IDEAL REACTING GAS
 CASE =                

             REACTANT                       MOLES         ENERGY      TEMP
                                                         KJ/KG-MOL      K
 FUEL        C2H5OH                       1.0000000   -234828.916    300.000
 OXIDANT     O2                           3.0000000        54.358    300.000

 O/F=    1.04189  %FUEL= 48.974259  R,EQ.RATIO= 1.750000  PHI,EQ.RATIO= 2.000000

 UNBURNED GAS

 P1, BAR           1.0000
 T1, K             300.00
 H1, KJ/KG       -2495.54
 M1, (1/n)         37.627
 GAMMA1            1.2338
 SON VEL1,M/SEC     286.0

 BURNED GAS

 P, BAR            41.847
 T, K             3330.42
 RHO, KG/CU M    2.7703 0
 H, KJ/KG         -404.40
 U, KJ/KG        -1914.95
 G, KJ/KG        -45007.4
 S, KJ/(KG)(K)    13.3926

 M, (1/n)          18.332
 (dLV/dLP)t      -1.01354
 (dLV/dLT)p        1.2454
 Cp, KJ/(KG)(K)    4.4933
 GAMMAs            1.1669
 SON VEL,M/SEC     1327.6

 DETONATION PARAMETERS

 P/P1              41.847
 T/T1              11.101
 M/M1              0.4872
 RHO/RHO1          1.8365
 DET MACH NUMBER   8.5254
 DET VEL,M/SEC     2438.2

 MOLE FRACTIONS

 *C              1.2048-9
 *CH             1.0604-9
 CH2             4.2525-9
 CH3             1.5353-8
 CH2OH           1.3855-9
 CH3O            3.999-10
 CH4             8.9969-9
 CH3OH           1.990-10
 CH3OOH          3.476-15
 *CO             3.3569-1
 *CO2            5.4034-2
 COOH            5.5236-6
 *C2             6.490-14
 C2H             4.124-12
 C2H2,acetylene  1.252-10
 C2H2,vinylidene 7.810-13
 CH2CO,ketene    5.092-10
 O(CH)2O         2.304-12
 HO(CO)2OH       8.082-14
 C2H3,vinyl      1.282-13
 CH3CO,acetyl    8.444-13
 C2H4            1.055-13
 CH3CHO,ethanal  4.118-14
 CH3COOH         9.478-15
 OHCH2COOH       6.996-16
 C2H5            1.936-16
 C2O             6.857-10
 C3O2            3.633-12
 *H              3.0219-2
 HCO             2.3812-5
 HCCO            1.468-10
 HO2             4.1160-6
 *H2             2.4490-1
 HCHO,formaldehy 1.4372-6
 HCOOH           1.6940-6
 H2O             3.1588-1
 H2O2            1.3598-6
 *O              1.1810-3
 *OH             1.7470-2
 *O2             5.9091-4
 O3              2.511-10

  * THERMODYNAMIC PROPERTIES FITTED TO 20000.K



