
 *******************************************************************************

         NASA-GLENN CHEMICAL EQUILIBRIUM PROGRAM CEA2, MAY 21, 2004
                   BY  BONNIE MCBRIDE AND SANFORD GORDON
      REFS: NASA RP-1311, PART I, 1994 AND NASA RP-1311, PART II, 1996

 *******************************************************************************



 problem    phi,eq.ratio=2.1,2.2,2.3,2.4,2.5,2.6,2.7,2.8,2.9,3,3.1,3.2,3.3,3.4,3.
 5,3.6,
       det   t,k=300,  p,bar=1,
 react
   fuel=C2H6 moles=1 t,k=300
   oxid=O2 moles=3.5 t,k=300
   oxid=N2 moles=13.1667 t,k=300
 output
      trace=1e-16 siunits short
 end


                     DETONATION PROPERTIES OF AN IDEAL REACTING GAS
 CASE =                

             REACTANT                       MOLES         ENERGY      TEMP
                                                         KJ/KG-MOL      K
 FUEL        C2H6                         1.0000000    -83754.210    300.000
 OXIDANT     O2                           3.5000000        54.358    300.000
 OXIDANT     N2                          13.1667000        53.881    300.000

 O/F=    7.61485  %FUEL= 11.607858  R,EQ.RATIO= 2.100000  PHI,EQ.RATIO= 2.100000

 UNBURNED GAS

 P1, BAR           1.0000
 T1, K             300.00
 H1, KJ/KG        -321.67
 M1, (1/n)         28.987
 GAMMA1            1.3538
 SON VEL1,M/SEC     341.3

 BURNED GAS

 P, BAR            15.874
 T, K             2173.94
 RHO, KG/CU M    2.0181 0
 H, KJ/KG          686.81
 U, KJ/KG         -99.772
 G, KJ/KG        -21565.1
 S, KJ/(KG)(K)    10.2358

 M, (1/n)          22.979
 (dLV/dLP)t      -1.00015
 (dLV/dLT)p        1.0035
 Cp, KJ/(KG)(K)    1.7028
 GAMMAs            1.2720
 SON VEL,M/SEC     1000.3

 DETONATION PARAMETERS

 P/P1              15.874
 T/T1               7.246
 M/M1              0.7928
 RHO/RHO1          1.7366
 DET MACH NUMBER   5.0894
 DET VEL,M/SEC     1737.1

 MOLE FRACTIONS

 *C              1.572-14
 *CH             7.544-14
 CH2             9.175-12
 CH3             1.8704-9
 CH2OH           1.514-11
 CH3O            1.796-12
 CH4             3.2706-8
 CH3OH           3.777-11
 *CN             2.436-10
 *CO             1.5900-1
 *CO2            1.8416-2
 COOH            3.1141-8
 C2H             2.450-15
 C2H2,acetylene  2.527-11
 C2H2,vinylidene 5.497-15
 CH2CO,ketene    8.398-11
 O(CH)2O         2.690-14
 HO(CO)2OH       2.234-16
 C2H3,vinyl      4.064-15
 CH3CN           1.594-13
 CH3CO,acetyl    3.055-14
 C2H4            1.866-13
 CH3CHO,ethanal  1.723-14
 CH3COOH         1.808-15
 C2H6            1.286-16
 OCCN            3.136-13
 C2N2            3.103-13
 C2O             5.846-13
 C3O2            7.801-14
 *H              4.9702-4
 HCN             2.4498-6
 HCO             3.0685-7
 HCCO            6.055-13
 HNC             1.6668-7
 HNCO            4.2081-7
 HNO             1.8908-9
 HNO2            8.042-12
 HO2             6.334-11
 *H2             1.6602-1
 HCHO,formaldehy 1.7156-7
 HCOOH           9.6747-8
 H2O             9.9818-2
 H2O2            1.847-10
 *N              1.7009-9
 NCO             6.634-10
 *NH             8.8874-9
 NH2             1.3954-7
 NH3             1.2428-5
 NH2OH           1.114-11
 *NO             3.1788-6
 NO2             5.367-12
 *N2             5.5619-1
 NCN             7.315-15
 N2H2            1.217-11
 N2H4            1.578-14
 N2O             5.945-10
 N3              2.687-14
 N3H             1.929-13
 *O              8.3636-8
 *OH             4.4797-5
 *O2             2.1252-8

  * THERMODYNAMIC PROPERTIES FITTED TO 20000.K


                     DETONATION PROPERTIES OF AN IDEAL REACTING GAS
 CASE =                

             REACTANT                       MOLES         ENERGY      TEMP
                                                         KJ/KG-MOL      K
 FUEL        C2H6                         1.0000000    -83754.210    300.000
 OXIDANT     O2                           3.5000000        54.358    300.000
 OXIDANT     N2                          13.1667000        53.881    300.000

 O/F=    7.26872  %FUEL= 12.093764  R,EQ.RATIO= 2.200000  PHI,EQ.RATIO= 2.200000

 UNBURNED GAS

 P1, BAR           1.0000
 T1, K             300.00
 H1, KJ/KG        -335.21
 M1, (1/n)         28.992
 GAMMA1            1.3521
 SON VEL1,M/SEC     341.1

 BURNED GAS

 P, BAR            15.522
 T, K             2097.70
 RHO, KG/CU M    2.0140 0
 H, KJ/KG          650.02
 U, KJ/KG         -120.68
 G, KJ/KG        -20936.6
 S, KJ/(KG)(K)    10.2906

 M, (1/n)          22.631
 (dLV/dLP)t      -1.00011
 (dLV/dLT)p        1.0024
 Cp, KJ/(KG)(K)    1.7023
 GAMMAs            1.2767
 SON VEL,M/SEC      992.0

 DETONATION PARAMETERS

 P/P1              15.522
 T/T1               6.992
 M/M1              0.7806
 RHO/RHO1          1.7328
 DET MACH NUMBER   5.0395
 DET VEL,M/SEC     1718.8

 MOLE FRACTIONS

 *C              6.079-15
 *CH             3.879-14
 CH2             7.478-12
 CH3             2.5920-9
 CH2OH           1.463-11
 CH3O            1.595-12
 CH4             7.3015-8
 CH3OH           5.509-11
 *CN             1.633-10
 *CO             1.6531-1
 *CO2            1.6729-2
 COOH            2.0475-8
 C2H             2.142-15
 C2H2,acetylene  4.531-11
 C2H2,vinylidene 6.892-15
 CH2CO,ketene    1.324-10
 O(CH)2O         2.900-14
 HO(CO)2OH       1.689-16
 C2H3,vinyl      6.663-15
 CH3CN           4.039-13
 CH3CO,acetyl    4.596-14
 C2H4            5.210-13
 CH3CHO,ethanal  3.726-14
 CH3COOH         3.255-15
 C2H5            1.282-16
 C2H6            5.096-16
 OCCN            2.650-13
 C2N2            4.132-13
 C2O             4.290-13
 C3O2            9.847-14
 *H              3.3319-4
 HCN             3.1275-6
 HCO             2.4360-7
 HCCO            5.821-13
 HNC             1.8780-7
 HNCO            4.4646-7
 HNO             7.977-10
 HNO2            2.425-12
 HO2             1.653-11
 *H2             1.8204-1
 HCHO,formaldehy 1.9194-7
 HCOOH           9.0635-8
 H2O             9.0820-2
 H2O2            6.734-11
 *N              6.480-10
 NCO             4.068-10
 *NH             4.4910-9
 NH2             1.0337-7
 NH3             1.5428-5
 NH2OH           6.819-12
 *NO             1.3247-6
 NO2             1.251-12
 *N2             5.4473-1
 NCN             4.142-15
 N2H2            8.288-12
 N2H4            1.476-14
 N2O             2.433-10
 N3              1.056-14
 N3H             1.049-13
 *O              2.5605-8
 *OH             2.2134-5
 *O2             5.4430-9

  * THERMODYNAMIC PROPERTIES FITTED TO 20000.K


                     DETONATION PROPERTIES OF AN IDEAL REACTING GAS
 CASE =                

             REACTANT                       MOLES         ENERGY      TEMP
                                                         KJ/KG-MOL      K
 FUEL        C2H6                         1.0000000    -83754.210    300.000
 OXIDANT     O2                           3.5000000        54.358    300.000
 OXIDANT     N2                          13.1667000        53.881    300.000

 O/F=    6.95269  %FUEL= 12.574357  R,EQ.RATIO= 2.300000  PHI,EQ.RATIO= 2.300000

 UNBURNED GAS

 P1, BAR           1.0000
 T1, K             300.00
 H1, KJ/KG        -348.61
 M1, (1/n)         28.998
 GAMMA1            1.3505
 SON VEL1,M/SEC     340.8

 BURNED GAS

 P, BAR            15.162
 T, K             2022.66
 RHO, KG/CU M    2.0101 0
 H, KJ/KG          612.77
 U, KJ/KG         -141.54
 G, KJ/KG        -20305.4
 S, KJ/(KG)(K)    10.3419

 M, (1/n)          22.295
 (dLV/dLP)t      -1.00008
 (dLV/dLT)p        1.0016
 Cp, KJ/(KG)(K)    1.7039
 GAMMAs            1.2812
 SON VEL,M/SEC      983.1

 DETONATION PARAMETERS

 P/P1              15.162
 T/T1               6.742
 M/M1              0.7689
 RHO/RHO1          1.7290
 DET MACH NUMBER   4.9871
 DET VEL,M/SEC     1699.8

 MOLE FRACTIONS

 *C              2.183-15
 *CH             1.868-14
 CH2             5.815-12
 CH3             3.5075-9
 CH2OH           1.371-11
 CH3O            1.369-12
 CH4             1.6266-7
 CH3OH           7.927-11
 *CN             1.050-10
 *CO             1.7122-1
 *CO2            1.5248-2
 COOH            1.3156-8
 C2H             1.774-15
 C2H2,acetylene  7.967-11
 C2H2,vinylidene 8.290-15
 CH2CO,ketene    2.061-10
 O(CH)2O         3.063-14
 HO(CO)2OH       1.262-16
 C2H3,vinyl      1.057-14
 CH3CN           1.017-12
 CH3CO,acetyl    6.756-14
 C2H4            1.441-12
 CH3CHO,ethanal  7.977-14
 CH3COOH         5.832-15
 C2H5            3.187-16
 C2H6            2.012-15
 OCCN            2.165-13
 C2N2            5.397-13
 C2O             3.017-13
 C3O2            1.224-13
 *H              2.1662-4
 HCN             3.9453-6
 HCO             1.8825-7
 HCCO            5.406-13
 HNC             2.0755-7
 HNCO            4.6965-7
 HNO             3.228-10
 HNO2            6.972-13
 HO2             4.072-12
 *H2             1.9753-1
 HCHO,formaldehy 2.1172-7
 HCOOH           8.4128-8
 H2O             8.2033-2
 H2O2            2.345-11
 *N              2.337-10
 NCO             2.415-10
 *NH             2.1663-9
 NH2             7.4159-8
 NH3             1.8967-5
 NH2OH           4.030-12
 *NO             5.3256-7
 NO2             2.760-13
 *N2             5.3372-1
 NCN             2.231-15
 N2H2            5.458-12
 N2H4            1.338-14
 N2O             9.612-11
 N3              3.944-15
 N3H             5.488-14
 *O              7.4246-9
 *OH             1.0561-5
 *O2             1.3250-9

  * THERMODYNAMIC PROPERTIES FITTED TO 20000.K


                     DETONATION PROPERTIES OF AN IDEAL REACTING GAS
 CASE =                

             REACTANT                       MOLES         ENERGY      TEMP
                                                         KJ/KG-MOL      K
 FUEL        C2H6                         1.0000000    -83754.210    300.000
 OXIDANT     O2                           3.5000000        54.358    300.000
 OXIDANT     N2                          13.1667000        53.881    300.000

 O/F=    6.66300  %FUEL= 13.049724  R,EQ.RATIO= 2.400000  PHI,EQ.RATIO= 2.400000

 UNBURNED GAS

 P1, BAR           1.0000
 T1, K             300.00
 H1, KJ/KG        -361.86
 M1, (1/n)         29.004
 GAMMA1            1.3489
 SON VEL1,M/SEC     340.6

 BURNED GAS

 P, BAR            14.794
 T, K             1948.82
 RHO, KG/CU M    2.0062 0
 H, KJ/KG          575.09
 U, KJ/KG         -162.35
 G, KJ/KG        -19672.8
 S, KJ/(KG)(K)    10.3898

 M, (1/n)          21.973
 (dLV/dLP)t      -1.00007
 (dLV/dLT)p        1.0011
 Cp, KJ/(KG)(K)    1.7069
 GAMMAs            1.2855
 SON VEL,M/SEC      973.6

 DETONATION PARAMETERS

 P/P1              14.794
 T/T1               6.496
 M/M1              0.7576
 RHO/RHO1          1.7253
 DET MACH NUMBER   4.9321
 DET VEL,M/SEC     1679.9

 MOLE FRACTIONS

 *C              7.258-16
 *CH             8.419-15
 CH2             4.325-12
 CH3             4.6623-9
 CH2OH           1.250-11
 CH3O            1.138-12
 CH4             3.6486-7
 CH3OH           1.131-10
 *CN             6.472-11
 *CO             1.7679-1
 *CO2            1.3923-2
 COOH            8.2408-9
 C2H             1.399-15
 C2H2,acetylene  1.386-10
 C2H2,vinylidene 9.634-15
 CH2CO,ketene    3.186-10
 O(CH)2O         3.178-14
 C2H3,vinyl      1.637-14
 CH3CN           2.577-12
 CH3CO,acetyl    9.777-14
 C2H4            3.997-12
 CH3CHO,ethanal  1.708-13
 CH3COOH         1.047-14
 C2H5            7.850-16
 C2H6            8.035-15
 OCCN            1.715-13
 C2N2            6.959-13
 C2O             2.037-13
 C3O2            1.505-13
 *H              1.3644-4
 HCN             4.9390-6
 HCO             1.4164-7
 HCCO            4.867-13
 HNC             2.2582-7
 HNCO            4.9066-7
 HNO             1.247-10
 HNO2            1.896-13
 HO2             9.389-13
 *H2             2.1248-1
 HCHO,formaldehy 2.3082-7
 HCOOH           7.7376-8
 H2O             7.3490-2
 H2O2            7.750-12
 *N              7.944-11
 NCO             1.386-10
 *NH             9.950-10
 NH2             5.1531-8
 NH3             2.3168-5
 NH2OH           2.296-12
 *NO             2.0536-7
 NO2             5.705-14
 *N2             5.2314-1
 NCN             1.143-15
 N2H2            3.475-12
 N2H4            1.179-14
 N2O             3.647-11
 N3              1.395-15
 N3H             2.754-14
 *O              2.0242-9
 *OH             4.8451-6
 *O2             3.035-10

  * THERMODYNAMIC PROPERTIES FITTED TO 20000.K


                     DETONATION PROPERTIES OF AN IDEAL REACTING GAS
 CASE =                

             REACTANT                       MOLES         ENERGY      TEMP
                                                         KJ/KG-MOL      K
 FUEL        C2H6                         1.0000000    -83754.210    300.000
 OXIDANT     O2                           3.5000000        54.358    300.000
 OXIDANT     N2                          13.1667000        53.881    300.000

 O/F=    6.39648  %FUEL= 13.519949  R,EQ.RATIO= 2.500000  PHI,EQ.RATIO= 2.500000

 UNBURNED GAS

 P1, BAR           1.0000
 T1, K             300.00
 H1, KJ/KG        -374.97
 M1, (1/n)         29.009
 GAMMA1            1.3474
 SON VEL1,M/SEC     340.4

 BURNED GAS

 P, BAR            14.418
 T, K             1876.18
 RHO, KG/CU M    2.0022 0
 H, KJ/KG          536.99
 U, KJ/KG         -183.12
 G, KJ/KG        -19039.5
 S, KJ/(KG)(K)    10.4342

 M, (1/n)          21.663
 (dLV/dLP)t      -1.00006
 (dLV/dLT)p        1.0008
 Cp, KJ/(KG)(K)    1.7108
 GAMMAs            1.2897
 SON VEL,M/SEC      963.7

 DETONATION PARAMETERS

 P/P1              14.418
 T/T1               6.254
 M/M1              0.7467
 RHO/RHO1          1.7216
 DET MACH NUMBER   4.8745
 DET VEL,M/SEC     1659.1

 MOLE FRACTIONS

 *C              2.228-16
 *CH             3.549-15
 CH2             3.083-12
 CH3             6.1193-9
 CH2OH           1.109-11
 CH3O            9.170-13
 CH4             8.3094-7
 CH3OH           1.606-10
 *CN             3.828-11
 *CO             1.8208-1
 *CO2            1.2714-2
 COOH            5.0170-9
 C2H             1.054-15
 C2H2,acetylene  2.403-10
 C2H2,vinylidene 1.089-14
 CH2CO,ketene    4.921-10
 O(CH)2O         3.248-14
 C2H3,vinyl      2.496-14
 CH3CN           6.632-12
 CH3CO,acetyl    1.401-13
 C2H4            1.126-11
 CH3CHO,ethanal  3.686-13
 CH3COOH         1.895-14
 C2H5            1.937-15
 C2H6            3.296-14
 OCCN            1.319-13
 C2N2            8.909-13
 C2O             1.322-13
 C3H4,propyne    1.169-16
 C3O2            1.840-13
 *H              8.3113-5
 HCN             6.1598-6
 HCO             1.0371-7
 HCCO            4.259-13
 HNC             2.4267-7
 HNCO            5.0976-7
 HNO             4.571-11
 HNO2            4.832-14
 HO2             2.005-13
 *H2             2.2690-1
 HCHO,formaldehy 2.4920-7
 HCOOH           7.0483-8
 H2O             6.5212-2
 H2O2            2.411-12
 *N              2.532-11
 NCO             7.670-11
 *NH             4.338-10
 NH2             3.4657-8
 NH3             2.8188-5
 NH2OH           1.257-12
 *NO             7.5472-8
 NO2             1.093-14
 *N2             5.1297-1
 NCN             5.567-16
 N2H2            2.136-12
 N2H4            1.010-14
 N2O             1.320-11
 N3              4.648-16
 N3H             1.323-14
 *O              5.147-10
 *OH             2.1263-6
 *O2             6.474-11

  * THERMODYNAMIC PROPERTIES FITTED TO 20000.K


                     DETONATION PROPERTIES OF AN IDEAL REACTING GAS
 CASE =                

             REACTANT                       MOLES         ENERGY      TEMP
                                                         KJ/KG-MOL      K
 FUEL        C2H6                         1.0000000    -83754.210    300.000
 OXIDANT     O2                           3.5000000        54.358    300.000
 OXIDANT     N2                          13.1667000        53.881    300.000

 O/F=    6.15046  %FUEL= 13.985116  R,EQ.RATIO= 2.600000  PHI,EQ.RATIO= 2.600000

 UNBURNED GAS

 P1, BAR           1.0000
 T1, K             300.00
 H1, KJ/KG        -387.93
 M1, (1/n)         29.015
 GAMMA1            1.3458
 SON VEL1,M/SEC     340.1

 BURNED GAS

 P, BAR            14.035
 T, K             1804.70
 RHO, KG/CU M    1.9983 0
 H, KJ/KG          498.50
 U, KJ/KG         -203.85
 G, KJ/KG        -18406.1
 S, KJ/(KG)(K)    10.4752

 M, (1/n)          21.364
 (dLV/dLP)t      -1.00006
 (dLV/dLT)p        1.0006
 Cp, KJ/(KG)(K)    1.7152
 GAMMAs            1.2938
 SON VEL,M/SEC      953.3

 DETONATION PARAMETERS

 P/P1              14.035
 T/T1               6.016
 M/M1              0.7363
 RHO/RHO1          1.7179
 DET MACH NUMBER   4.8144
 DET VEL,M/SEC     1637.6

 MOLE FRACTIONS

 *CH             1.396-15
 CH2             2.109-12
 CH3             7.9684-9
 CH2OH           9.593-12
 CH3O            7.169-13
 CH4             1.9373-6
 CH3OH           2.281-10
 *CN             2.171-11
 *CO             1.8713-1
 *CO2            1.1588-2
 COOH            2.9575-9
 C2H             7.617-16
 C2H2,acetylene  4.191-10
 C2H2,vinylidene 1.203-14
 CH2CO,ketene    7.639-10
 O(CH)2O         3.276-14
 C2H3,vinyl      3.776-14
 CH3CN           1.754-11
 CH3CO,acetyl    2.001-13
 C2H4            3.254-11
 CH3CHO,ethanal  8.094-13
 CH3COOH         3.478-14
 C2H5            4.845-15
 C2H6            1.408-13
 C2H5OH          1.154-16
 OCCN            9.865-14
 C2N2            1.139-12
 C2O             8.238-14
 C3H3,2-propynl  1.955-16
 C3H4,allene     1.577-16
 C3H4,propyne    4.076-16
 C3O2            2.244-13
 *H              4.8853-5
 HCN             7.6832-6
 HCO             7.3826-8
 HCCO            3.632-13
 HNC             2.5834-7
 HNCO            5.2720-7
 HNO             1.579-11
 HNO2            1.142-14
 HO2             3.919-14
 *H2             2.4080-1
 HCHO,formaldehy 2.6683-7
 HCOOH           6.3524-8
 H2O             5.7213-2
 H2O2            6.998-13
 *N              7.523-12
 NCO             4.083-11
 *NH             1.788-10
 NH2             2.2529-8
 NH3             3.4239-5
 NH2OH           6.593-13
 *NO             2.6245-8
 NO2             1.915-15
 *N2             5.0318-1
 NCN             2.572-16
 N2H2            1.267-12
 N2H4            8.431-15
 N2O             4.526-12
 N3              1.451-16
 N3H             6.061-15
 *O              1.210-10
 *OH             8.8726-7
 *O2             1.270-11

  * THERMODYNAMIC PROPERTIES FITTED TO 20000.K


                     DETONATION PROPERTIES OF AN IDEAL REACTING GAS
 CASE =                

             REACTANT                       MOLES         ENERGY      TEMP
                                                         KJ/KG-MOL      K
 FUEL        C2H6                         1.0000000    -83754.210    300.000
 OXIDANT     O2                           3.5000000        54.358    300.000
 OXIDANT     N2                          13.1667000        53.881    300.000

 O/F=    5.92266  %FUEL= 14.445306  R,EQ.RATIO= 2.700000  PHI,EQ.RATIO= 2.700000

 UNBURNED GAS

 P1, BAR           1.0000
 T1, K             300.00
 H1, KJ/KG        -400.76
 M1, (1/n)         29.020
 GAMMA1            1.3443
 SON VEL1,M/SEC     339.9

 BURNED GAS

 P, BAR            13.644
 T, K             1734.34
 RHO, KG/CU M    1.9942 0
 H, KJ/KG          459.60
 U, KJ/KG         -224.57
 G, KJ/KG        -17773.1
 S, KJ/(KG)(K)    10.5128

 M, (1/n)          21.077
 (dLV/dLP)t      -1.00008
 (dLV/dLT)p        1.0005
 Cp, KJ/(KG)(K)    1.7199
 GAMMAs            1.2979
 SON VEL,M/SEC      942.3

 DETONATION PARAMETERS

 P/P1              13.644
 T/T1               5.781
 M/M1              0.7263
 RHO/RHO1          1.7140
 DET MACH NUMBER   4.7517
 DET VEL,M/SEC     1615.2

 MOLE FRACTIONS

 *CH             5.113-16
 CH2             1.385-12
 CH3             1.0344-8
 CH2OH           8.088-12
 CH3O            5.436-13
 CH4             4.6638-6
 CH3OH           3.250-10
 *CN             1.179-11
 *CO             1.9198-1
 *CO2            1.0515-2
 COOH            1.6802-9
 C2H             5.296-16
 C2H2,acetylene  7.414-10
 C2H2,vinylidene 1.308-14
 CH2CO,ketene    1.1988-9
 O(CH)2O         3.264-14
 C2H3,vinyl      5.714-14
 CH3CN           4.819-11
 CH3CO,acetyl    2.863-13
 C2H4            9.779-11
 CH3CHO,ethanal  1.823-12
 CH3COOH         6.512-14
 C2H5            1.243-14
 C2H6            6.364-13
 C2H5OH          3.235-16
 OCCN            7.179-14
 C2N2            1.465-12
 C2O             4.935-14
 C3H3,2-propynl  4.671-16
 C3H4,allene     5.643-16
 C3H4,propyne    1.487-15
 C3H6,propylene  1.457-16
 C3O2            2.743-13
 *H              2.7631-5
 HCN             9.6237-6
 HCO             5.1016-8
 HCCO            3.023-13
 HNC             2.7332-7
 HNCO            5.4322-7
 HNO             5.100-12
 HNO2            2.472-15
 HO2             6.917-15
 *H2             2.5417-1
 HCHO,formaldehy 2.8371-7
 HCOOH           5.6548-8
 H2O             4.9502-2
 H2O2            1.873-13
 *N              2.068-12
 NCO             2.084-11
 *NH             6.930-11
 NH2             1.4128-8
 NH3             4.1604-5
 NH2OH           3.295-13
 *NO             8.5634-9
 NO2             3.026-16
 *N2             4.9375-1
 NCN             1.126-16
 N2H2            7.225-13
 N2H4            6.857-15
 N2O             1.458-12
 N3H             2.639-15
 *O              2.599-11
 *OH             3.4955-7
 *O2             2.260-12

  * THERMODYNAMIC PROPERTIES FITTED TO 20000.K


                     DETONATION PROPERTIES OF AN IDEAL REACTING GAS
 CASE =                

             REACTANT                       MOLES         ENERGY      TEMP
                                                         KJ/KG-MOL      K
 FUEL        C2H6                         1.0000000    -83754.210    300.000
 OXIDANT     O2                           3.5000000        54.358    300.000
 OXIDANT     N2                          13.1667000        53.881    300.000

 O/F=    5.71114  %FUEL= 14.900597  R,EQ.RATIO= 2.800000  PHI,EQ.RATIO= 2.800000

 UNBURNED GAS

 P1, BAR           1.0000
 T1, K             300.00
 H1, KJ/KG        -413.45
 M1, (1/n)         29.026
 GAMMA1            1.3428
 SON VEL1,M/SEC     339.7

 BURNED GAS

 P, BAR            13.245
 T, K             1665.06
 RHO, KG/CU M    1.9900 0
 H, KJ/KG          420.31
 U, KJ/KG         -245.26
 G, KJ/KG        -17140.7
 S, KJ/(KG)(K)    10.5468

 M, (1/n)          20.800
 (dLV/dLP)t      -1.00011
 (dLV/dLT)p        1.0007
 Cp, KJ/(KG)(K)    1.7250
 GAMMAs            1.3020
 SON VEL,M/SEC      930.9

 DETONATION PARAMETERS

 P/P1              13.245
 T/T1               5.550
 M/M1              0.7166
 RHO/RHO1          1.7101
 DET MACH NUMBER   4.6863
 DET VEL,M/SEC     1592.0

 MOLE FRACTIONS

 *CH             1.736-16
 CH2             8.735-13
 CH3             1.3458-8
 CH2OH           6.646-12
 CH3O            3.994-13
 CH4             1.1703-5
 CH3OH           4.659-10
 *CN             6.127-12
 *CO             1.9666-1
 *CO2            9.4693-3
 COOH            9.145-10
 C2H             3.557-16
 C2H2,acetylene  1.3440-9
 C2H2,vinylidene 1.408-14
 CH2CO,ketene    1.9146-9
 O(CH)2O         3.217-14
 C2H3,vinyl      8.732-14
 CH3CN           1.395-10
 CH3CO,acetyl    4.131-13
 C2H4            3.098-10
 CH3CHO,ethanal  4.251-12
 CH3COOH         1.250-13
 C2H5            3.312-14
 C2H6            3.095-12
 C2H5OH          9.468-16
 OCCN            5.092-14
 C2N2            1.910-12
 C2O             2.841-14
 C3H3,2-propynl  1.159-15
 C3H4,allene     2.149-15
 C3H4,propyne    5.777-15
 C3H6,propylene  9.473-16
 C3O2            3.377-13
 *H              1.4987-5
 HCN             1.2163-5
 HCO             3.4155-8
 HCCO            2.463-13
 HNC             2.8845-7
 HNCO            5.5807-7
 HNO             1.525-12
 HNO2            4.828-16
 HO2             1.084-15
 *H2             2.6702-1
 HCHO,formaldehy 2.9984-7
 HCOOH           4.9583-8
 H2O             4.2093-2
 H2O2            4.564-14
 *N              5.220-13
 NCO             1.016-11
 *NH             2.512-11
 NH2             8.5248-9
 NH3             5.0663-5
 NH2OH           1.559-13
 *NO             2.5961-9
 *N2             4.8467-1
 N2H2            3.954-13
 N2H4            5.432-15
 N2O             4.371-13
 N3H             1.087-15
 *O              5.040-12
 *OH             1.2890-7
 *O2             3.589-13

  * THERMODYNAMIC PROPERTIES FITTED TO 20000.K


                     DETONATION PROPERTIES OF AN IDEAL REACTING GAS
 CASE =                

             REACTANT                       MOLES         ENERGY      TEMP
                                                         KJ/KG-MOL      K
 FUEL        C2H6                         1.0000000    -83754.210    300.000
 OXIDANT     O2                           3.5000000        54.358    300.000
 OXIDANT     N2                          13.1667000        53.881    300.000

 O/F=    5.51420  %FUEL= 15.351068  R,EQ.RATIO= 2.900000  PHI,EQ.RATIO= 2.900000

 UNBURNED GAS

 P1, BAR           1.0000
 T1, K             300.00
 H1, KJ/KG        -426.00
 M1, (1/n)         29.031
 GAMMA1            1.3414
 SON VEL1,M/SEC     339.5

 BURNED GAS

 P, BAR            12.839
 T, K             1596.87
 RHO, KG/CU M    1.9857 0
 H, KJ/KG          380.66
 U, KJ/KG         -265.92
 G, KJ/KG        -16509.7
 S, KJ/(KG)(K)    10.5772

 M, (1/n)          20.534
 (dLV/dLP)t      -1.00020
 (dLV/dLT)p        1.0014
 Cp, KJ/(KG)(K)    1.7314
 GAMMAs            1.3060
 SON VEL,M/SEC      918.9

 DETONATION PARAMETERS

 P/P1              12.839
 T/T1               5.323
 M/M1              0.7073
 RHO/RHO1          1.7061
 DET MACH NUMBER   4.6183
 DET VEL,M/SEC     1567.8

 MOLE FRACTIONS

 CH2             5.304-13
 CH3             1.7658-8
 CH2OH           5.319-12
 CH3O            2.842-13
 CH4             3.0933-5
 CH3OH           6.741-10
 *CN             3.048-12
 *CO             2.0119-1
 *CO2            8.4255-3
 COOH            4.733-10
 C2H             2.323-16
 C2H2,acetylene  2.5283-9
 C2H2,vinylidene 1.517-14
 CH2CO,ketene    3.1359-9
 O(CH)2O         3.139-14
 C2H3,vinyl      1.363-13
 CH3CN           4.323-10
 CH3CO,acetyl    6.055-13
 C2H4            1.0515-9
 C2H4O,ethylen-o 1.370-16
 CH3CHO,ethanal  1.037-11
 CH3COOH         2.475-13
 C2H5            9.314-14
 C2H6            1.651-11
 C2H5OH          2.927-15
 OCCN            3.530-14
 C2N2            2.552-12
 C2O             1.573-14
 C3H3,2-propynl  3.045-15
 C3H4,allene     8.897-15
 C3H4,propyne    2.444-14
 C3H5,allyl      2.258-16
 C3H6,propylene  6.904-15
 C3O2            4.213-13
 *H              7.7676-6
 HCN             1.5604-5
 HCO             2.2105-8
 HCCO            1.971-13
 HNC             3.0514-7
 HNCO            5.7198-7
 HNO             4.176-13
 HO2             1.481-16
 *H2             2.7933-1
 HCHO,formaldehy 3.1525-7
 HCOOH           4.2649-8
 H2O             3.5001-2
 H2O2            9.953-15
 *N              1.200-13
 NCO             4.707-12
 *NH             8.467-12
 NH2             4.9357-9
 NH3             6.1928-5
 NH2OH           6.929-14
 *NO             7.230-10
 *N2             4.7593-1
 N2H2            2.070-13
 N2H4            4.190-15
 N2O             1.206-13
 N3H             4.212-16
 *O              8.703-13
 *OH             4.4043-8
 *O2             4.985-14

  * THERMODYNAMIC PROPERTIES FITTED TO 20000.K


                     DETONATION PROPERTIES OF AN IDEAL REACTING GAS
 CASE =                

             REACTANT                       MOLES         ENERGY      TEMP
                                                         KJ/KG-MOL      K
 FUEL        C2H6                         1.0000000    -83754.210    300.000
 OXIDANT     O2                           3.5000000        54.358    300.000
 OXIDANT     N2                          13.1667000        53.881    300.000

 O/F=    5.33040  %FUEL= 15.796796  R,EQ.RATIO= 3.000000  PHI,EQ.RATIO= 3.000000

 UNBURNED GAS

 P1, BAR           1.0000
 T1, K             300.00
 H1, KJ/KG        -438.43
 M1, (1/n)         29.036
 GAMMA1            1.3400
 SON VEL1,M/SEC     339.3

 BURNED GAS

 P, BAR            12.429
 T, K             1529.95
 RHO, KG/CU M    1.9814 0
 H, KJ/KG          340.80
 U, KJ/KG         -286.48
 G, KJ/KG        -15882.5
 S, KJ/(KG)(K)    10.6039

 M, (1/n)          20.279
 (dLV/dLP)t      -1.00044
 (dLV/dLT)p        1.0035
 Cp, KJ/(KG)(K)    1.7426
 GAMMAs            1.3098
 SON VEL,M/SEC      906.4

 DETONATION PARAMETERS

 P/P1              12.429
 T/T1               5.100
 M/M1              0.6984
 RHO/RHO1          1.7022
 DET MACH NUMBER   4.5476
 DET VEL,M/SEC     1542.9

 MOLE FRACTIONS

 CH2             3.115-13
 CH3             2.3546-8
 CH2OH           4.145-12
 CH3O            1.956-13
 CH4             8.7037-5
 CH3OH           9.867-10
 *CN             1.457-12
 *CO             2.0561-1
 *CO2            7.3585-3
 COOH            2.310-10
 C2H             1.492-16
 C2H2,acetylene  5.0135-9
 C2H2,vinylidene 1.655-14
 CH2CO,ketene    5.3150-9
 O(CH)2O         3.035-14
 C2H3,vinyl      2.207-13
 CH3CN           1.4588-9
 CH3CO,acetyl    9.094-13
 C2H4            3.8941-9
 C2H4O,ethylen-o 2.421-16
 CH3CHO,ethanal  2.677-11
 CH3COOH         5.072-13
 C2H5            2.813-13
 C2H6            9.856-11
 C2H5OH          9.670-15
 OCCN            2.405-14
 C2N2            3.544-12
 C2O             8.424-15
 C3H3,2-propynl  8.672-15
 C3H4,allene     4.110-14
 C3H4,propyne    1.155-13
 C3H5,allyl      1.145-15
 C3H6,propylene  5.803-14
 C3H6,cyclo-     1.076-16
 C3H6O,acetone   2.188-16
 C3H8            3.171-16
 C3O2            5.372-13
 *H              3.8383-6
 HCN             2.0475-5
 HCO             1.3812-8
 HCCO            1.558-13
 HNC             3.2580-7
 HNCO            5.8520-7
 HNO             1.035-13
 *H2             2.9105-1
 HCHO,formaldehy 3.2991-7
 HCOOH           3.5765-8
 H2O             2.8262-2
 H2O2            1.908-15
 *N              2.496-14
 NCO             2.070-12
 *NH             2.643-12
 NH2             2.7372-9
 NH3             7.6067-5
 NH2OH           2.867-14
 *NO             1.830-10
 *N2             4.6753-1
 N2H2            1.034-13
 N2H4            3.146-15
 N2O             3.028-14
 N3H             1.532-16
 *O              1.321-13
 *OH             1.3801-8
 *O2             5.939-15

  * THERMODYNAMIC PROPERTIES FITTED TO 20000.K


                     DETONATION PROPERTIES OF AN IDEAL REACTING GAS
 CASE =                

             REACTANT                       MOLES         ENERGY      TEMP
                                                         KJ/KG-MOL      K
 FUEL        C2H6                         1.0000000    -83754.210    300.000
 OXIDANT     O2                           3.5000000        54.358    300.000
 OXIDANT     N2                          13.1667000        53.881    300.000

 O/F=    5.15845  %FUEL= 16.237853  R,EQ.RATIO= 3.100000  PHI,EQ.RATIO= 3.100000

 UNBURNED GAS

 P1, BAR           1.0000
 T1, K             300.00
 H1, KJ/KG        -450.72
 M1, (1/n)         29.041
 GAMMA1            1.3386
 SON VEL1,M/SEC     339.1

 BURNED GAS

 P, BAR            12.025
 T, K             1465.16
 RHO, KG/CU M    1.9779 0
 H, KJ/KG          301.42
 U, KJ/KG         -306.53
 G, KJ/KG        -15268.6
 S, KJ/(KG)(K)    10.6269

 M, (1/n)          20.038
 (dLV/dLP)t      -1.00115
 (dLV/dLT)p        1.0103
 Cp, KJ/(KG)(K)    1.7722
 GAMMAs            1.3120
 SON VEL,M/SEC      893.1

 DETONATION PARAMETERS

 P/P1              12.025
 T/T1               4.884
 M/M1              0.6900
 RHO/RHO1          1.6988
 DET MACH NUMBER   4.4746
 DET VEL,M/SEC     1517.2

 MOLE FRACTIONS

 CH2             1.798-13
 CH3             3.2207-8
 CH2OH           3.156-12
 CH3O            1.308-13
 CH4             2.6146-4
 CH3OH           1.4578-9
 *CN             6.815-13
 *CO             2.0988-1
 *CO2            6.2498-3
 COOH            1.059-10
 C2H2,acetylene  1.0658-8
 C2H2,vinylidene 1.873-14
 CH2CO,ketene    9.3921-9
 O(CH)2O         2.913-14
 C2H3,vinyl      3.777-13
 CH3CN           5.4323-9
 CH3CO,acetyl    1.412-12
 C2H4            1.5924-8
 C2H4O,ethylen-o 4.453-16
 CH3CHO,ethanal  7.338-11
 CH3COOH         1.072-12
 C2H5            9.252-13
 C2H6            6.640-10
 C2H5OH          3.425-14
 OCCN            1.635-14
 C2N2            5.219-12
 C2O             4.435-15
 C3H3,2-propynl  2.747-14
 C3H4,allene     2.164-13
 C3H4,propyne    6.229-13
 C3H4,cyclo-     1.446-16
 C3H5,allyl      6.640-15
 C3H6,propylene  5.719-13
 C3H6,cyclo-     9.398-16
 C3H6O,acetone   1.549-15
 C3H6O,propanal  4.490-16
 C3H8            4.914-15
 C3O2            7.071-13
 C4H2,butadiyne  1.423-16
 C4H6,butadiene  1.526-16
 *H              1.8194-6
 HCN             2.7730-5
 HCO             8.3707-9
 HCCO            1.234-13
 HNC             3.5497-7
 HNCO            5.9798-7
 HNO             2.328-14
 *H2             3.0198-1
 HCHO,formaldehy 3.4377-7
 HCOOH           2.9002-8
 H2O             2.1965-2
 H2O2            3.193-16
 *N              4.769-15
 NCO             8.708-13
 *NH             7.718-13
 NH2             1.4619-9
 NH3             9.3769-5
 NH2OH           1.102-14
 *NO             4.212-11
 *N2             4.5954-1
 N2H2            4.966-14
 N2H4            2.308-15
 N2O             6.933-15
 *O              1.771-14
 *OH             3.9634-9
 *O2             6.049-16

  * THERMODYNAMIC PROPERTIES FITTED TO 20000.K


                     DETONATION PROPERTIES OF AN IDEAL REACTING GAS
 CASE =                

             REACTANT                       MOLES         ENERGY      TEMP
                                                         KJ/KG-MOL      K
 FUEL        C2H6                         1.0000000    -83754.210    300.000
 OXIDANT     O2                           3.5000000        54.358    300.000
 OXIDANT     N2                          13.1667000        53.881    300.000

 O/F=    4.99725  %FUEL= 16.674315  R,EQ.RATIO= 3.200000  PHI,EQ.RATIO= 3.200000

 UNBURNED GAS

 P1, BAR           1.0000
 T1, K             300.00
 H1, KJ/KG        -462.89
 M1, (1/n)         29.047
 GAMMA1            1.3372
 SON VEL1,M/SEC     338.9

 BURNED GAS

 P, BAR            11.658
 T, K             1405.19
 RHO, KG/CU M    1.9778 0
 H, KJ/KG          264.21
 U, KJ/KG         -325.26
 G, KJ/KG        -14695.6
 S, KJ/(KG)(K)    10.6461

 M, (1/n)          19.820
 (dLV/dLP)t      -1.00322
 (dLV/dLT)p        1.0312
 Cp, KJ/(KG)(K)    1.8642
 GAMMAs            1.3091
 SON VEL,M/SEC      878.4

 DETONATION PARAMETERS

 P/P1              11.658
 T/T1               4.684
 M/M1              0.6824
 RHO/RHO1          1.6984
 DET MACH NUMBER   4.4027
 DET VEL,M/SEC     1491.9

 MOLE FRACTIONS

 CH2             1.064-13
 CH3             4.5418-8
 CH2OH           2.381-12
 CH3O            8.682-14
 CH4             8.1441-4
 CH3OH           2.1435-9
 *CN             3.281-13
 *CO             2.1385-1
 *CO2            5.1158-3
 COOH            4.650-11
 C2H2,acetylene  2.4360-8
 C2H2,vinylidene 2.264-14
 CH2CO,ketene    1.7210-8
 O(CH)2O         2.791-14
 C2H3,vinyl      6.922-13
 CH3CN           2.1860-8
 CH3CO,acetyl    2.270-12
 C2H4            7.0139-8
 C2H4O,ethylen-o 8.479-16
 CH3CHO,ethanal  2.087-10
 CH3COOH         2.269-12
 C2H5            3.267-12
 C2H6            4.8241-9
 C2H5OH          1.258-13
 CH3OCH3         2.779-16
 OCCN            1.150-14
 C2N2            8.307-12
 C2O             2.406-15
 C3H3,2-propynl  9.711-14
 C3H4,allene     1.276-12
 C3H4,propyne    3.762-12
 C3H4,cyclo-     6.329-16
 C3H5,allyl      4.311-14
 C3H6,propylene  6.323-12
 C3H6,cyclo-     9.211-15
 C3H6O,acetone   1.186-14
 C3H6O,propanal  3.020-15
 C3H8            8.553-14
 C3O2            9.684-13
 C4H2,butadiyne  7.154-16
 C4H6,butadiene  2.619-15
 C4H6,2butyne    1.025-16
 C4H8,1-butene   1.047-16
 *H              8.5468-7
 HCN             3.8942-5
 HCO             5.0356-9
 HCCO            1.009-13
 HNC             4.0028-7
 HNCO            6.1062-7
 HNO             4.989-15
 *H2             3.1156-1
 HCHO,formaldehy 3.5664-7
 HCOOH           2.2619-8
 H2O             1.6346-2
 *N              8.996-16
 NCO             3.642-13
 *NH             2.227-13
 NH2             7.737-10
 NH3             1.1510-4
 NH2OH           4.047-15
 *NO             9.253-12
 *N2             4.5216-1
 N2H2            2.370-14
 N2H4            1.682-15
 N2O             1.519-15
 *O              2.255-15
 *OH             1.0838-9

  * THERMODYNAMIC PROPERTIES FITTED TO 20000.K


                     DETONATION PROPERTIES OF AN IDEAL REACTING GAS
 CASE =                

             REACTANT                       MOLES         ENERGY      TEMP
                                                         KJ/KG-MOL      K
 FUEL        C2H6                         1.0000000    -83754.210    300.000
 OXIDANT     O2                           3.5000000        54.358    300.000
 OXIDANT     N2                          13.1667000        53.881    300.000

 O/F=    4.84582  %FUEL= 17.106251  R,EQ.RATIO= 3.300000  PHI,EQ.RATIO= 3.300000

 UNBURNED GAS

 P1, BAR           1.0000
 T1, K             300.00
 H1, KJ/KG        -474.93
 M1, (1/n)         29.052
 GAMMA1            1.3358
 SON VEL1,M/SEC     338.7

 BURNED GAS

 P, BAR            11.388
 T, K             1356.09
 RHO, KG/CU M    1.9844 0
 H, KJ/KG          232.69
 U, KJ/KG         -341.17
 G, KJ/KG        -14226.2
 S, KJ/(KG)(K)    10.6622

 M, (1/n)          19.648
 (dLV/dLP)t      -1.00788
 (dLV/dLT)p        1.0808
 Cp, KJ/(KG)(K)    2.0915
 GAMMAs            1.2961
 SON VEL,M/SEC      862.4

 DETONATION PARAMETERS

 P/P1              11.388
 T/T1               4.520
 M/M1              0.6763
 RHO/RHO1          1.7038
 DET MACH NUMBER   4.3388
 DET VEL,M/SEC     1469.4

 MOLE FRACTIONS

 CH2             7.029-14
 CH3             6.4616-8
 CH2OH           1.850-12
 CH3O            6.026-14
 CH4             2.3360-3
 CH3OH           3.0027-9
 *CN             1.811-13
 *CO             2.1710-1
 *CO2            4.0653-3
 COOH            2.128-11
 C2H2,acetylene  5.6207-8
 C2H2,vinylidene 2.971-14
 CH2CO,ketene    3.1003-8
 O(CH)2O         2.691-14
 C2H3,vinyl      1.312-12
 CH3CN           8.3347-8
 CH3CO,acetyl    3.642-12
 C2H4            2.8875-7
 C2H4O,ethylen-o 1.579-15
 CH3CHO,ethanal  5.541-10
 CH3COOH         4.412-12
 C2H5            1.105-11
 C2H6            3.0886-8
 C2H5OH          4.183-13
 CH3OCH3         7.937-16
 OCCN            8.911-15
 C2N2            1.401-11
 C2O             1.479-15
 C3H3,2-propynl  3.481-13
 C3H4,allene     7.188-12
 C3H4,propyne    2.164-11
 C3H4,cyclo-     2.738-15
 C3H5,allyl      2.644-13
 C3H6,propylene  6.204-11
 C3H6,cyclo-     8.128-14
 C3H6O,acetone   7.982-14
 C3H6O,propanal  1.813-14
 C3H7,n-propyl   4.155-16
 C3H7,i-propyl   4.784-16
 C3H8            1.252-12
 C3O2            1.355-12
 C4H2,butadiyne  3.703-15
 C4H6,butadiene  4.012-14
 C4H6,1butyne    9.383-16
 C4H6,2butyne    1.449-15
 C4H8,1-butene   2.352-15
 C4H8,cis2-buten 1.279-15
 C4H8,tr2-butene 1.442-15
 C4H8,isobutene  1.843-15
 C5H6,1,3cyclo-  2.125-16
 C6H6            1.643-15
 *H              4.3639-7
 HCN             5.5425-5
 HCO             3.2054-9
 HCCO            8.904-14
 HNC             4.6916-7
 HNCO            6.2239-7
 HNO             1.210-15
 *H2             3.1855-1
 HCHO,formaldehy 3.6747-7
 HCOOH           1.7218-8
 H2O             1.1876-2
 *N              2.054-16
 NCO             1.687-13
 *NH             7.399-14
 NH2             4.392-10
 NH3             1.3739-4
 NH2OH           1.579-15
 *NO             2.294-12
 *N2             4.4588-1
 N2H2            1.232-14
 N2H4            1.269-15
 N2O             3.771-16
 *O              3.444-16
 *OH             3.251-10

  * THERMODYNAMIC PROPERTIES FITTED TO 20000.K


                     DETONATION PROPERTIES OF AN IDEAL REACTING GAS
 CASE =                

             REACTANT                       MOLES         ENERGY      TEMP
                                                         KJ/KG-MOL      K
 FUEL        C2H6                         1.0000000    -83754.210    300.000
 OXIDANT     O2                           3.5000000        54.358    300.000
 OXIDANT     N2                          13.1667000        53.881    300.000

 O/F=    4.70329  %FUEL= 17.533733  R,EQ.RATIO= 3.400000  PHI,EQ.RATIO= 3.400000

 UNBURNED GAS

 P1, BAR           1.0000
 T1, K             300.00
 H1, KJ/KG        -486.84
 M1, (1/n)         29.057
 GAMMA1            1.3345
 SON VEL1,M/SEC     338.5

 BURNED GAS

 P, BAR            11.216
 T, K             1321.86
 RHO, KG/CU M    1.9940 0
 H, KJ/KG          207.83
 U, KJ/KG         -354.67
 G, KJ/KG        -13904.7
 S, KJ/(KG)(K)    10.6763

 M, (1/n)          19.539
 (dLV/dLP)t      -1.01362
 (dLV/dLT)p        1.1444
 Cp, KJ/(KG)(K)    2.3995
 GAMMAs            1.2798
 SON VEL,M/SEC      848.5

 DETONATION PARAMETERS

 P/P1              11.216
 T/T1               4.406
 M/M1              0.6724
 RHO/RHO1          1.7117
 DET MACH NUMBER   4.2909
 DET VEL,M/SEC     1452.3

 MOLE FRACTIONS

 CH2             5.415-14
 CH3             8.7744-8
 CH2OH           1.524-12
 CH3O            4.572-14
 CH4             5.3271-3
 CH3OH           3.8247-9
 *CN             1.227-13
 *CO             2.1921-1
 *CO2            3.2547-3
 COOH            1.130-11
 C2H2,acetylene  1.1529-7
 C2H2,vinylidene 4.009-14
 CH2CO,ketene    5.0304-8
 O(CH)2O         2.612-14
 C2H3,vinyl      2.322-12
 CH3CN           2.4792-7
 CH3CO,acetyl    5.415-12
 C2H4            9.0664-7
 C2H4O,ethylen-o 2.619-15
 CH3CHO,ethanal  1.1946-9
 CH3COOH         7.183-12
 C2H5            2.996-11
 C2H6            1.3411-7
 C2H5OH          1.062-12
 CH3OCH3         1.801-15
 OCCN            7.771-15
 C2N2            2.290-11
 C2O             1.085-15
 C3H3,2-propynl  1.041-12
 C3H4,allene     3.001-11
 C3H4,propyne    9.173-11
 C3H4,cyclo-     9.401-15
 C3H5,allyl      1.174-12
 C3H6,propylene  3.895-10
 C3H6,cyclo-     4.719-13
 C3H6O,acetone   3.601-13
 C3H6O,propanal  7.518-14
 C3H7,n-propyl   2.172-15
 C3H7,i-propyl   2.569-15
 C3H8            1.055-11
 C3H8O,2propanol 1.082-16
 C3O2            1.833-12
 C4H2,butadiyne  1.535-14
 C4H6,butadiene  3.693-13
 C4H6,1butyne    7.703-15
 C4H6,2butyne    1.256-14
 C4H6,cyclo-     2.529-16
 C4H8,1-butene   2.867-14
 C4H8,cis2-buten 1.597-14
 C4H8,tr2-butene 1.802-14
 C4H8,isobutene  2.333-14
 C4H10,n-butane  8.310-16
 C4H10,isobutane 3.431-16
 C5H6,1,3cyclo-  3.455-15
 C6H6            5.562-14
 *H              2.6427-7
 HCN             7.5625-5
 HCO             2.2866-9
 HCCO            8.528-14
 HNC             5.5435-7
 HNCO            6.3012-7
 HNO             4.012-16
 *H2             3.2202-1
 HCHO,formaldehy 3.7400-7
 HCOOH           1.3318-8
 H2O             8.8536-3
 NCO             9.539-14
 *NH             3.260-14
 NH2             2.873-10
 NH3             1.5564-4
 NH2OH           7.424-16
 *NO             7.746-13
 *N2             4.4110-1
 N2H2            7.566-15
 N2H4            1.023-15
 N2O             1.276-16
 *OH             1.261-10

  * THERMODYNAMIC PROPERTIES FITTED TO 20000.K


                     DETONATION PROPERTIES OF AN IDEAL REACTING GAS
 CASE =                

             REACTANT                       MOLES         ENERGY      TEMP
                                                         KJ/KG-MOL      K
 FUEL        C2H6                         1.0000000    -83754.210    300.000
 OXIDANT     O2                           3.5000000        54.358    300.000
 OXIDANT     N2                          13.1667000        53.881    300.000

 O/F=    4.56891  %FUEL= 17.956828  R,EQ.RATIO= 3.500000  PHI,EQ.RATIO= 3.500000

 UNBURNED GAS

 P1, BAR           1.0000
 T1, K             300.00
 H1, KJ/KG        -498.63
 M1, (1/n)         29.062
 GAMMA1            1.3332
 SON VEL1,M/SEC     338.3

 BURNED GAS

 P, BAR            11.136
 T, K             1300.66
 RHO, KG/CU M    2.0060 0
 H, KJ/KG          189.00
 U, KJ/KG         -366.15
 G, KJ/KG        -13713.9
 S, KJ/(KG)(K)    10.6891

 M, (1/n)          19.480
 MW, MOL WT        19.467
 (dLV/dLP)t      -1.01715
 (dLV/dLT)p        1.1877
 Cp, KJ/(KG)(K)    2.6846
 GAMMAs            1.2612
 SON VEL,M/SEC      836.8

 DETONATION PARAMETERS

 P/P1              11.136
 T/T1               4.336
 M/M1              0.6703
 RHO/RHO1          1.7217
 DET MACH NUMBER   4.2588
 DET VEL,M/SEC     1440.7

 MOLE FRACTIONS

 CH2             4.629-14
 CH3             1.0813-7
 CH2OH           1.339-12
 CH3O            3.808-14
 CH4             9.1727-3
 CH3OH           4.4487-9
 *CN             9.670-14
 *CO             2.1980-1
 *CO2            2.7649-3
 COOH            7.360-12
 C2H2,acetylene  1.8856-7
 C2H2,vinylidene 5.003-14
 CH2CO,ketene    6.9580-8
 O(CH)2O         2.553-14
 C2H3,vinyl      3.451-12
 CH3CN           5.1562-7
 CH3CO,acetyl    7.078-12
 C2H4            1.9502-6
 C2H4O,ethylen-o 3.671-15
 CH3CHO,ethanal  1.9838-9
 CH3COOH         9.793-12
 C2H5            5.858-11
 C2H6            3.5537-7
 C2H5OH          1.959-12
 CH3OCH3         3.089-15
 OCCN            7.210-15
 C2N2            3.243-11
 C2O             8.996-16
 C3H3,2-propynl  2.206-12
 C3H4,allene     7.884-11
 C3H4,propyne    2.434-10
 C3H4,cyclo-     2.177-14
 C3H5,allyl      3.209-12
 C3H6,propylene  1.3310-9
 C3H6,cyclo-     1.533-12
 C3H6O,acetone   9.783-13
 C3H6O,propanal  1.934-13
 C3H7,n-propyl   6.589-15
 C3H7,i-propyl   7.930-15
 C3H8            4.354-11
 C3H8O,1propanol 2.255-16
 C3H8O,2propanol 3.177-16
 C3O2            2.256-12
 C4H2,butadiyne  4.082-14
 C4H6,butadiene  1.643-12
 C4H6,1butyne    3.181-14
 C4H6,2butyne    5.372-14
 C4H6,cyclo-     1.062-15
 C4H8,1-butene   1.527-13
 C4H8,cis2-buten 8.641-14
 C4H8,tr2-butene 9.758-14
 C4H8,isobutene  1.274-13
 C4H10,n-butane  5.335-15
 C4H10,isobutane 2.231-15
 C5H6,1,3cyclo-  2.254-14
 C5H8,cyclo-     2.868-16
 C6H6            5.923-13
 C7H8            5.987-16
 *H              1.9049-7
 HCN             9.3644-5
 HCO             1.8314-9
 HCCO            8.396-14
 HNC             6.2552-7
 HNCO            6.3321-7
 HNO             1.930-16
 *H2             3.2294-1
 HCHO,formaldehy 3.7666-7
 HCOOH           1.1060-8
 H2O             7.1757-3
 NCO             6.584-14
 *NH             1.915-14
 NH2             2.176-10
 NH3             1.6803-4
 NH2OH           4.472-16
 *NO             3.771-13
 *N2             4.3721-1
 N2H2            5.509-15
 N2H4            8.868-16
 *OH             6.704-11
 C(gr)           6.6744-4

  * THERMODYNAMIC PROPERTIES FITTED TO 20000.K


                     DETONATION PROPERTIES OF AN IDEAL REACTING GAS
 CASE =                

             REACTANT                       MOLES         ENERGY      TEMP
                                                         KJ/KG-MOL      K
 FUEL        C2H6                         1.0000000    -83754.210    300.000
 OXIDANT     O2                           3.5000000        54.358    300.000
 OXIDANT     N2                          13.1667000        53.881    300.000

 O/F=    4.44200  %FUEL= 18.375603  R,EQ.RATIO= 3.600000  PHI,EQ.RATIO= 3.600000

 UNBURNED GAS

 P1, BAR           1.0000
 T1, K             300.00
 H1, KJ/KG        -510.31
 M1, (1/n)         29.067
 GAMMA1            1.3319
 SON VEL1,M/SEC     338.1

 BURNED GAS

 P, BAR            11.078
 T, K             1288.10
 RHO, KG/CU M    2.0101 0
 H, KJ/KG          172.82
 U, KJ/KG         -378.31
 G, KJ/KG        -13612.4
 S, KJ/(KG)(K)    10.7020

 M, (1/n)          19.433
 MW, MOL WT        19.288
 (dLV/dLP)t      -1.01890
 (dLV/dLT)p        1.2093
 Cp, KJ/(KG)(K)    2.8184
 GAMMAs            1.2549
 SON VEL,M/SEC      831.6

 DETONATION PARAMETERS

 P/P1              11.078
 T/T1               4.294
 M/M1              0.6686
 RHO/RHO1          1.7250
 DET MACH NUMBER   4.2431
 DET VEL,M/SEC     1434.5

 MOLE FRACTIONS

 CH2             3.296-14
 CH3             9.6654-8
 CH2OH           1.228-12
 CH3O            3.381-14
 CH4             1.0101-2
 CH3OH           4.8644-9
 *CN             6.472-14
 *CO             2.1503-1
 *CO2            3.0826-3
 COOH            7.019-12
 C2H2,acetylene  1.5518-7
 C2H2,vinylidene 3.493-14
 CH2CO,ketene    6.5187-8
 O(CH)2O         2.440-14
 C2H3,vinyl      2.693-12
 CH3CN           4.9288-7
 CH3CO,acetyl    6.441-12
 C2H4            1.9161-6
 C2H4O,ethylen-o 3.505-15
 CH3CHO,ethanal  2.0990-9
 CH3COOH         1.159-11
 C2H5            5.460-11
 C2H6            4.0054-7
 C2H5OH          2.233-12
 CH3OCH3         3.368-15
 OCCN            5.234-15
 C2N2            2.412-11
 C2O             6.110-16
 C3H3,2-propynl  1.665-12
 C3H4,allene     6.817-11
 C3H4,propyne    2.118-10
 C3H4,cyclo-     1.744-14
 C3H5,allyl      2.858-12
 C3H6,propylene  1.3645-9
 C3H6,cyclo-     1.524-12
 C3H6O,acetone   1.100-12
 C3H6O,propanal  2.103-13
 C3H7,n-propyl   6.318-15
 C3H7,i-propyl   7.684-15
 C3H8            5.060-11
 C3H8O,1propanol 2.655-16
 C3H8O,2propanol 3.784-16
 C3O2            1.913-12
 C4H2,butadiyne  2.742-14
 C4H6,butadiene  1.540-12
 C4H6,1butyne    2.851-14
 C4H6,2butyne    4.919-14
 C4H6,cyclo-     9.617-16
 C4H8,1-butene   1.614-13
 C4H8,cis2-buten 9.225-14
 C4H8,tr2-butene 1.042-13
 C4H8,isobutene  1.367-13
 C4H10,n-butane  6.388-15
 C4H10,isobutane 2.692-15
 C5H6,1,3cyclo-  2.080-14
 C5H8,cyclo-     2.942-16
 C6H6            5.735-13
 C7H8            6.054-16
 *H              1.5607-7
 HCN             8.2931-5
 HCO             1.5711-9
 HCCO            6.364-14
 HNC             5.2352-7
 HNCO            6.2253-7
 HNO             1.556-16
 *H2             3.2510-1
 HCHO,formaldehy 3.7337-7
 HCOOH           1.2291-8
 H2O             7.9986-3
 NCO             5.125-14
 *NH             1.382-14
 NH2             1.844-10
 NH3             1.7754-4
 NH2OH           4.178-16
 *NO             3.047-13
 *N2             4.3098-1
 N2H2            4.549-15
 N2H4            8.231-16
 *OH             5.754-11
 C(gr)           7.4387-3

  * THERMODYNAMIC PROPERTIES FITTED TO 20000.K



