
 *******************************************************************************

         NASA-GLENN CHEMICAL EQUILIBRIUM PROGRAM CEA2, MAY 21, 2004
                   BY  BONNIE MCBRIDE AND SANFORD GORDON
      REFS: NASA RP-1311, PART I, 1994 AND NASA RP-1311, PART II, 1996

 *******************************************************************************



 problem    phi,eq.ratio=2.1,2.2,2.3,2.4,2.5,2.6,2.7,2.8,2.9,3,3.1,3.2,3.3,3.4,3.
 5,3.6,
       det   t,k=300,  p,bar=1,
 react
   fuel=C3H8 moles=1 t,k=300
   oxid=O2 moles=5 t,k=300
   oxid=N2 moles=18.8095 t,k=300
 output
      trace=1e-16 siunits short
 end


                     DETONATION PROPERTIES OF AN IDEAL REACTING GAS
 CASE =                

             REACTANT                       MOLES         ENERGY      TEMP
                                                         KJ/KG-MOL      K
 FUEL        C3H8                         1.0000000   -104543.521    300.000
 OXIDANT     O2                           5.0000000        54.358    300.000
 OXIDANT     N2                          18.8095000        53.881    300.000

 O/F=    7.41799  %FUEL= 11.879317  R,EQ.RATIO= 2.100000  PHI,EQ.RATIO= 2.100000

 UNBURNED GAS

 P1, BAR           1.0000
 T1, K             300.00
 H1, KJ/KG        -279.99
 M1, (1/n)         30.086
 GAMMA1            1.3394
 SON VEL1,M/SEC     333.2

 BURNED GAS

 P, BAR            16.377
 T, K             2185.63
 RHO, KG/CU M    2.0959 0
 H, KJ/KG          724.29
 U, KJ/KG         -57.105
 G, KJ/KG        -21409.0
 S, KJ/(KG)(K)    10.1267

 M, (1/n)          23.256
 (dLV/dLP)t      -1.00016
 (dLV/dLT)p        1.0036
 Cp, KJ/(KG)(K)    1.6789
 GAMMAs            1.2728
 SON VEL,M/SEC      997.3

 DETONATION PARAMETERS

 P/P1              16.377
 T/T1               7.285
 M/M1              0.7730
 RHO/RHO1          1.7377
 DET MACH NUMBER   5.2003
 DET VEL,M/SEC     1732.9

 MOLE FRACTIONS

 *C              2.070-14
 *CH             9.512-14
 CH2             1.079-11
 CH3             2.0303-9
 CH2OH           1.619-11
 CH3O            1.946-12
 CH4             3.3038-8
 CH3OH           3.796-11
 *CN             3.009-10
 *CO             1.6926-1
 *CO2            1.8693-2
 COOH            3.3086-8
 C2H             3.365-15
 C2H2,acetylene  3.116-11
 C2H2,vinylidene 7.147-15
 CH2CO,ketene    9.867-11
 O(CH)2O         3.125-14
 HO(CO)2OH       2.389-16
 C2H3,vinyl      5.069-15
 CH3CN           1.897-13
 CH3CO,acetyl    3.608-14
 C2H4            2.149-13
 CH3CHO,ethanal  1.926-14
 CH3COOH         1.940-15
 C2H6            1.401-16
 OCCN            4.124-13
 C2N2            4.152-13
 C2O             7.716-13
 C3O2            1.047-13
 *H              5.1167-4
 HCN             2.7479-6
 HCO             3.3923-7
 HCCO            7.666-13
 HNC             1.9043-7
 HNCO            4.5339-7
 HNO             1.9810-9
 HNO2            8.275-12
 HO2             6.546-11
 *H2             1.5866-1
 HCHO,formaldehy 1.7998-7
 HCOOH           9.7393-8
 H2O             9.1648-2
 H2O2            1.814-10
 *N              1.9390-9
 NCO             7.763-10
 *NH             9.6998-9
 NH2             1.4369-7
 NH3             1.1839-5
 NH2OH           1.101-11
 *NO             3.3427-6
 NO2             5.747-12
 *N2             5.6116-1
 NCN             9.423-15
 N2H2            1.290-11
 N2H4            1.591-14
 N2O             6.376-10
 N3              3.154-14
 N3H             2.154-13
 *O              9.0490-8
 *OH             4.5084-5
 *O2             2.2064-8

  * THERMODYNAMIC PROPERTIES FITTED TO 20000.K


                     DETONATION PROPERTIES OF AN IDEAL REACTING GAS
 CASE =                

             REACTANT                       MOLES         ENERGY      TEMP
                                                         KJ/KG-MOL      K
 FUEL        C3H8                         1.0000000   -104543.521    300.000
 OXIDANT     O2                           5.0000000        54.358    300.000
 OXIDANT     N2                          18.8095000        53.881    300.000

 O/F=    7.08081  %FUEL= 12.374996  R,EQ.RATIO= 2.200000  PHI,EQ.RATIO= 2.200000

 UNBURNED GAS

 P1, BAR           1.0000
 T1, K             300.00
 H1, KJ/KG        -291.75
 M1, (1/n)         30.140
 GAMMA1            1.3373
 SON VEL1,M/SEC     332.7

 BURNED GAS

 P, BAR            16.032
 T, K             2108.63
 RHO, KG/CU M    2.0951 0
 H, KJ/KG          688.99
 U, KJ/KG         -76.219
 G, KJ/KG        -20770.0
 S, KJ/(KG)(K)    10.1768

 M, (1/n)          22.912
 (dLV/dLP)t      -1.00011
 (dLV/dLT)p        1.0025
 Cp, KJ/(KG)(K)    1.6774
 GAMMAs            1.2776
 SON VEL,M/SEC      988.8

 DETONATION PARAMETERS

 P/P1              16.032
 T/T1               7.029
 M/M1              0.7602
 RHO/RHO1          1.7339
 DET MACH NUMBER   5.1534
 DET VEL,M/SEC     1714.4

 MOLE FRACTIONS

 *C              8.120-15
 *CH             4.968-14
 CH2             8.946-12
 CH3             2.8664-9
 CH2OH           1.575-11
 CH3O            1.739-12
 CH4             7.5236-8
 CH3OH           5.580-11
 *CN             2.046-10
 *CO             1.7611-1
 *CO2            1.6782-2
 COOH            2.1543-8
 C2H             3.030-15
 C2H2,acetylene  5.764-11
 C2H2,vinylidene 9.244-15
 CH2CO,ketene    1.585-10
 O(CH)2O         3.389-14
 HO(CO)2OH       1.772-16
 C2H3,vinyl      8.588-15
 CH3CN           4.967-13
 CH3CO,acetyl    5.537-14
 C2H4            6.206-13
 CH3CHO,ethanal  4.255-14
 CH3COOH         3.525-15
 C2H5            1.548-16
 C2H6            5.763-16
 OCCN            3.540-13
 C2N2            5.689-13
 C2O             5.749-13
 C3O2            1.343-13
 *H              3.4334-4
 HCN             3.5632-6
 HCO             2.7006-7
 HCCO            7.495-13
 HNC             2.1795-7
 HNCO            4.8253-7
 HNO             8.268-10
 HNO2            2.438-12
 HO2             1.668-11
 *H2             1.7442-1
 HCHO,formaldehy 2.0224-7
 HCOOH           9.0487-8
 H2O             8.2570-2
 H2O2            6.469-11
 *N              7.388-10
 NCO             4.768-10
 *NH             4.9108-9
 NH2             1.0681-7
 NH3             1.4769-5
 NH2OH           6.689-12
 *NO             1.3758-6
 NO2             1.307-12
 *N2             5.4973-1
 NCN             5.417-15
 N2H2            8.822-12
 N2H4            1.499-14
 N2O             2.578-10
 N3              1.241-14
 N3H             1.175-13
 *O              2.7350-8
 *OH             2.2026-5
 *O2             5.5100-9

  * THERMODYNAMIC PROPERTIES FITTED TO 20000.K


                     DETONATION PROPERTIES OF AN IDEAL REACTING GAS
 CASE =                

             REACTANT                       MOLES         ENERGY      TEMP
                                                         KJ/KG-MOL      K
 FUEL        C3H8                         1.0000000   -104543.521    300.000
 OXIDANT     O2                           5.0000000        54.358    300.000
 OXIDANT     N2                          18.8095000        53.881    300.000

 O/F=    6.77295  %FUEL= 12.865129  R,EQ.RATIO= 2.300000  PHI,EQ.RATIO= 2.300000

 UNBURNED GAS

 P1, BAR           1.0000
 T1, K             300.00
 H1, KJ/KG        -303.38
 M1, (1/n)         30.193
 GAMMA1            1.3351
 SON VEL1,M/SEC     332.1

 BURNED GAS

 P, BAR            15.676
 T, K             2032.78
 RHO, KG/CU M    2.0943 0
 H, KJ/KG          653.22
 U, KJ/KG         -95.296
 G, KJ/KG        -20128.4
 S, KJ/(KG)(K)    10.2232

 M, (1/n)          22.580
 (dLV/dLP)t      -1.00008
 (dLV/dLT)p        1.0017
 Cp, KJ/(KG)(K)    1.6780
 GAMMAs            1.2822
 SON VEL,M/SEC      979.7

 DETONATION PARAMETERS

 P/P1              15.676
 T/T1               6.776
 M/M1              0.7479
 RHO/RHO1          1.7302
 DET MACH NUMBER   5.1036
 DET VEL,M/SEC     1695.0

 MOLE FRACTIONS

 *C              2.957-15
 *CH             2.430-14
 CH2             7.080-12
 CH3             3.9555-9
 CH2OH           1.484-11
 CH3O            1.500-12
 CH4             1.7120-7
 CH3OH           8.086-11
 *CN             1.335-10
 *CO             1.8254-1
 *CO2            1.5091-2
 COOH            1.3675-8
 C2H             2.590-15
 C2H2,acetylene  1.048-10
 C2H2,vinylidene 1.150-14
 CH2CO,ketene    2.515-10
 O(CH)2O         3.598-14
 HO(CO)2OH       1.294-16
 C2H3,vinyl      1.411-14
 CH3CN           1.297-12
 CH3CO,acetyl    8.315-14
 C2H4            1.781-12
 CH3CHO,ethanal  9.320-14
 CH3COOH         6.370-15
 C2H5            4.001-16
 C2H6            2.369-15
 OCCN            2.942-13
 C2N2            7.670-13
 C2O             4.109-13
 C3O2            1.700-13
 *H              2.2327-4
 HCN             4.5719-6
 HCO             2.0914-7
 HCCO            7.086-13
 HNC             2.4498-7
 HNCO            5.0904-7
 HNO             3.301-10
 HNO2            6.819-13
 HO2             3.996-12
 *H2             1.8967-1
 HCHO,formaldehy 2.2394-7
 HCOOH           8.3116-8
 H2O             7.3696-2
 H2O2            2.194-11
 *N              2.662-10
 NCO             2.833-10
 *NH             2.3706-9
 NH2             7.6822-8
 NH3             1.8237-5
 NH2OH           3.913-12
 *NO             5.4490-7
 NO2             2.800-13
 *N2             5.3875-1
 NCN             2.963-15
 N2H2            5.827-12
 N2H4            1.368-14
 N2O             1.004-10
 N3              4.636-15
 N3H             6.159-14
 *O              7.8057-9
 *OH             1.0365-5
 *O2             1.3017-9

  * THERMODYNAMIC PROPERTIES FITTED TO 20000.K


                     DETONATION PROPERTIES OF AN IDEAL REACTING GAS
 CASE =                

             REACTANT                       MOLES         ENERGY      TEMP
                                                         KJ/KG-MOL      K
 FUEL        C3H8                         1.0000000   -104543.521    300.000
 OXIDANT     O2                           5.0000000        54.358    300.000
 OXIDANT     N2                          18.8095000        53.881    300.000

 O/F=    6.49074  %FUEL= 13.349810  R,EQ.RATIO= 2.400000  PHI,EQ.RATIO= 2.400000

 UNBURNED GAS

 P1, BAR           1.0000
 T1, K             300.00
 H1, KJ/KG        -314.88
 M1, (1/n)         30.246
 GAMMA1            1.3330
 SON VEL1,M/SEC     331.6

 BURNED GAS

 P, BAR            15.311
 T, K             1958.08
 RHO, KG/CU M    2.0935 0
 H, KJ/KG          616.99
 U, KJ/KG         -114.34
 G, KJ/KG        -19485.1
 S, KJ/(KG)(K)    10.2663

 M, (1/n)          22.261
 (dLV/dLP)t      -1.00007
 (dLV/dLT)p        1.0011
 Cp, KJ/(KG)(K)    1.6800
 GAMMAs            1.2866
 SON VEL,M/SEC      970.0

 DETONATION PARAMETERS

 P/P1              15.311
 T/T1               6.527
 M/M1              0.7360
 RHO/RHO1          1.7265
 DET MACH NUMBER   5.0510
 DET VEL,M/SEC     1674.7

 MOLE FRACTIONS

 *C              9.976-16
 *CH             1.114-14
 CH2             5.366-12
 CH3             5.3709-9
 CH2OH           1.359-11
 CH3O            1.252-12
 CH4             3.9311-7
 CH3OH           1.161-10
 *CN             8.371-11
 *CO             1.8861-1
 *CO2            1.3564-2
 COOH            8.4374-9
 C2H             2.116-15
 C2H2,acetylene  1.894-10
 C2H2,vinylidene 1.387-14
 CH2CO,ketene    3.974-10
 O(CH)2O         3.751-14
 C2H3,vinyl      2.273-14
 CH3CN           3.422-12
 CH3CO,acetyl    1.231-13
 C2H4            5.152-12
 CH3CHO,ethanal  2.046-13
 CH3COOH         1.153-14
 C2H5            1.028-15
 C2H6            9.897-15
 OCCN            2.374-13
 C2N2            1.025-12
 C2O             2.824-13
 C3O2            2.134-13
 *H              1.4054-4
 HCN             5.8335-6
 HCO             1.5757-7
 HCCO            6.504-13
 HNC             2.7161-7
 HNCO            5.3320-7
 HNO             1.253-10
 HNO2            1.793-13
 HO2             8.898-13
 *H2             2.0440-1
 HCHO,formaldehy 2.4497-7
 HCOOH           7.5444-8
 H2O             6.5065-2
 H2O2            7.016-12
 *N              9.025-11
 NCO             1.626-10
 *NH             1.0882-9
 NH2             5.3467-8
 NH3             2.2366-5
 NH2OH           2.199-12
 *NO             2.0630-7
 NO2             5.584-14
 *N2             5.2818-1
 NCN             1.544-15
 N2H2            3.716-12
 N2H4            1.211-14
 N2O             3.741-11
 N3              1.638-15
 N3H             3.093-14
 *O              2.0866-9
 *OH             4.6735-6
 *O2             2.876-10

  * THERMODYNAMIC PROPERTIES FITTED TO 20000.K


                     DETONATION PROPERTIES OF AN IDEAL REACTING GAS
 CASE =                

             REACTANT                       MOLES         ENERGY      TEMP
                                                         KJ/KG-MOL      K
 FUEL        C3H8                         1.0000000   -104543.521    300.000
 OXIDANT     O2                           5.0000000        54.358    300.000
 OXIDANT     N2                          18.8095000        53.881    300.000

 O/F=    6.23111  %FUEL= 13.829129  R,EQ.RATIO= 2.500000  PHI,EQ.RATIO= 2.500000

 UNBURNED GAS

 P1, BAR           1.0000
 T1, K             300.00
 H1, KJ/KG        -326.25
 M1, (1/n)         30.299
 GAMMA1            1.3310
 SON VEL1,M/SEC     331.0

 BURNED GAS

 P, BAR            14.936
 T, K             1884.51
 RHO, KG/CU M    2.0927 0
 H, KJ/KG          580.33
 U, KJ/KG         -133.37
 G, KJ/KG        -18841.0
 S, KJ/(KG)(K)    10.3058

 M, (1/n)          21.954
 (dLV/dLP)t      -1.00006
 (dLV/dLT)p        1.0008
 Cp, KJ/(KG)(K)    1.6829
 GAMMAs            1.2909
 SON VEL,M/SEC      959.8

 DETONATION PARAMETERS

 P/P1              14.936
 T/T1               6.282
 M/M1              0.7246
 RHO/RHO1          1.7228
 DET MACH NUMBER   4.9956
 DET VEL,M/SEC     1653.6

 MOLE FRACTIONS

 *C              3.110-16
 *CH             4.778-15
 CH2             3.905-12
 CH3             7.2197-9
 CH2OH           1.210-11
 CH3O            1.012-12
 CH4             9.1954-7
 CH3OH           1.660-10
 *CN             5.043-11
 *CO             1.9439-1
 *CO2            1.2155-2
 COOH            5.0398-9
 C2H             1.660-15
 C2H2,acetylene  3.433-10
 C2H2,vinylidene 1.636-14
 CH2CO,ketene    6.292-10
 O(CH)2O         3.851-14
 C2H3,vinyl      3.625-14
 CH3CN           9.233-12
 CH3CO,acetyl    1.810-13
 C2H4            1.522-11
 CH3CHO,ethanal  4.542-13
 CH3COOH         2.105-14
 C2H5            2.665-15
 C2H6            4.274-14
 OCCN            1.864-13
 C2N2            1.369-12
 C2O             1.868-13
 C3H3,2-propynl  1.450-16
 C3H4,propyne    1.937-16
 C3O2            2.669-13
 *H              8.5468-5
 HCN             7.4374-6
 HCO             1.1545-7
 HCCO            5.817-13
 HNC             2.9822-7
 HNCO            5.5529-7
 HNO             4.495-11
 HNO2            4.381-14
 HO2             1.820-13
 *H2             2.1861-1
 HCHO,formaldehy 2.6529-7
 HCOOH           6.7588-8
 H2O             5.6703-2
 H2O2            2.096-12
 *N              2.864-11
 NCO             8.991-11
 *NH             4.734-10
 NH2             3.5979-8
 NH3             2.7314-5
 NH2OH           1.182-12
 *NO             7.4108-8
 NO2             1.023-14
 *N2             5.1801-1
 NCN             7.654-16
 N2H2            2.286-12
 N2H4            1.042-14
 N2O             1.324-11
 N3              5.441-16
 N3H             1.485-14
 *O              5.176-10
 *OH             2.0070-6
 *O2             5.869-11

  * THERMODYNAMIC PROPERTIES FITTED TO 20000.K


                     DETONATION PROPERTIES OF AN IDEAL REACTING GAS
 CASE =                

             REACTANT                       MOLES         ENERGY      TEMP
                                                         KJ/KG-MOL      K
 FUEL        C3H8                         1.0000000   -104543.521    300.000
 OXIDANT     O2                           5.0000000        54.358    300.000
 OXIDANT     N2                          18.8095000        53.881    300.000

 O/F=    5.99146  %FUEL= 14.303174  R,EQ.RATIO= 2.600000  PHI,EQ.RATIO= 2.600000

 UNBURNED GAS

 P1, BAR           1.0000
 T1, K             300.00
 H1, KJ/KG        -337.50
 M1, (1/n)         30.351
 GAMMA1            1.3290
 SON VEL1,M/SEC     330.5

 BURNED GAS

 P, BAR            14.551
 T, K             1812.05
 RHO, KG/CU M    2.0918 0
 H, KJ/KG          543.23
 U, KJ/KG         -152.39
 G, KJ/KG        -18196.7
 S, KJ/(KG)(K)    10.3418

 M, (1/n)          21.659
 (dLV/dLP)t      -1.00007
 (dLV/dLT)p        1.0006
 Cp, KJ/(KG)(K)    1.6862
 GAMMAs            1.2951
 SON VEL,M/SEC      949.2

 DETONATION PARAMETERS

 P/P1              14.551
 T/T1               6.040
 M/M1              0.7136
 RHO/RHO1          1.7191
 DET MACH NUMBER   4.9373
 DET VEL,M/SEC     1631.7

 MOLE FRACTIONS

 *CH             1.917-15
 CH2             2.735-12
 CH3             9.6668-9
 CH2OH           1.050-11
 CH3O            7.928-13
 CH4             2.2127-6
 CH3OH           2.372-10
 *CN             2.921-11
 *CO             1.9992-1
 *CO2            1.0826-2
 COOH            2.8996-9
 C2H             1.258-15
 C2H2,acetylene  6.311-10
 C2H2,vinylidene 1.902-14
 CH2CO,ketene    1.0056-9
 O(CH)2O         3.898-14
 C2H3,vinyl      5.783-14
 CH3CN           2.583-11
 CH3CO,acetyl    2.662-13
 C2H4            4.660-11
 CH3CHO,ethanal  1.031-12
 CH3COOH         3.897-14
 C2H5            7.060-15
 C2H6            1.941-13
 C2H5OH          1.441-16
 OCCN            1.428-13
 C2N2            1.841-12
 C2O             1.191-13
 C3H3,2-propynl  3.668-16
 C3H4,allene     2.845-16
 C3H4,propyne    7.340-16
 C3O2            3.345-13
 *H              5.0096-5
 HCN             9.5235-6
 HCO             8.2167-8
 HCCO            5.086-13
 HNC             3.2566-7
 HNCO            5.7559-7
 HNO             1.510-11
 HNO2            9.820-15
 HO2             3.369-14
 *H2             2.3230-1
 HCHO,formaldehy 2.8485-7
 HCOOH           5.9632-8
 H2O             4.8631-2
 H2O2            5.777-13
 *N              8.453-12
 NCO             4.776-11
 *NH             1.943-10
 NH2             2.3375-8
 NH3             3.3297-5
 NH2OH           6.053-13
 *NO             2.5039-8
 NO2             1.697-15
 *N2             5.0822-1
 NCN             3.611-16
 N2H2            1.355-12
 N2H4            8.726-15
 N2O             4.414-12
 N3              1.690-16
 N3H             6.789-15
 *O              1.179-10
 *OH             8.1478-7
 *O2             1.089-11

  * THERMODYNAMIC PROPERTIES FITTED TO 20000.K


                     DETONATION PROPERTIES OF AN IDEAL REACTING GAS
 CASE =                

             REACTANT                       MOLES         ENERGY      TEMP
                                                         KJ/KG-MOL      K
 FUEL        C3H8                         1.0000000   -104543.521    300.000
 OXIDANT     O2                           5.0000000        54.358    300.000
 OXIDANT     N2                          18.8095000        53.881    300.000

 O/F=    5.76955  %FUEL= 14.772031  R,EQ.RATIO= 2.700000  PHI,EQ.RATIO= 2.700000

 UNBURNED GAS

 P1, BAR           1.0000
 T1, K             300.00
 H1, KJ/KG        -348.63
 M1, (1/n)         30.403
 GAMMA1            1.3270
 SON VEL1,M/SEC     330.0

 BURNED GAS

 P, BAR            14.157
 T, K             1740.65
 RHO, KG/CU M    2.0907 0
 H, KJ/KG          505.70
 U, KJ/KG         -171.41
 G, KJ/KG        -17552.4
 S, KJ/(KG)(K)    10.3743

 M, (1/n)          21.374
 (dLV/dLP)t      -1.00008
 (dLV/dLT)p        1.0006
 Cp, KJ/(KG)(K)    1.6899
 GAMMAs            1.2993
 SON VEL,M/SEC      938.0

 DETONATION PARAMETERS

 P/P1              14.157
 T/T1               5.802
 M/M1              0.7030
 RHO/RHO1          1.7153
 DET MACH NUMBER   4.8761
 DET VEL,M/SEC     1608.9

 MOLE FRACTIONS

 *CH             7.185-16
 CH2             1.847-12
 CH3             1.2980-8
 CH2OH           8.865-12
 CH3O            6.016-13
 CH4             5.5370-6
 CH3OH           3.399-10
 *CN             1.628-11
 *CO             2.0525-1
 *CO2            9.5411-3
 COOH            1.5961-9
 C2H             9.266-16
 C2H2,acetylene  1.1919-9
 C2H2,vinylidene 2.200-14
 CH2CO,ketene    1.6353-9
 O(CH)2O         3.898-14
 C2H3,vinyl      9.342-14
 CH3CN           7.614-11
 CH3CO,acetyl    3.948-13
 C2H4            1.503-10
 CH3CHO,ethanal  2.415-12
 CH3COOH         7.364-14
 C2H5            1.943-14
 C2H6            9.459-13
 C2H5OH          4.218-16
 OCCN            1.070-13
 C2N2            2.521-12
 C2O             7.330-14
 C3H3,2-propynl  9.672-16
 C3H4,allene     1.128-15
 C3H4,propyne    2.966-15
 C3H6,propylene  2.790-16
 C3O2            4.228-13
 *H              2.8215-5
 HCN             1.2322-5
 HCO             5.6710-8
 HCCO            4.365-13
 HNC             3.5550-7
 HNCO            5.9435-7
 HNO             4.703-12
 HNO2            1.985-15
 HO2             5.543-15
 *H2             2.4546-1
 HCHO,formaldehy 3.0364-7
 HCOOH           5.1628-8
 H2O             4.0864-2
 H2O2            1.447-13
 *N              2.302-12
 NCO             2.428-11
 *NH             7.488-11
 NH2             1.4630-8
 NH3             4.0600-5
 NH2OH           2.930-13
 *NO             7.8725-9
 NO2             2.497-16
 *N2             4.9880-1
 NCN             1.620-16
 N2H2            7.710-13
 N2H4            7.111-15
 N2O             1.371-12
 N3H             2.944-15
 *O              2.431-11
 *OH             3.0978-7
 *O2             1.806-12

  * THERMODYNAMIC PROPERTIES FITTED TO 20000.K


                     DETONATION PROPERTIES OF AN IDEAL REACTING GAS
 CASE =                

             REACTANT                       MOLES         ENERGY      TEMP
                                                         KJ/KG-MOL      K
 FUEL        C3H8                         1.0000000   -104543.521    300.000
 OXIDANT     O2                           5.0000000        54.358    300.000
 OXIDANT     N2                          18.8095000        53.881    300.000

 O/F=    5.56349  %FUEL= 15.235787  R,EQ.RATIO= 2.800000  PHI,EQ.RATIO= 2.800000

 UNBURNED GAS

 P1, BAR           1.0000
 T1, K             300.00
 H1, KJ/KG        -359.63
 M1, (1/n)         30.455
 GAMMA1            1.3251
 SON VEL1,M/SEC     329.4

 BURNED GAS

 P, BAR            13.753
 T, K             1670.28
 RHO, KG/CU M    2.0895 0
 H, KJ/KG          467.75
 U, KJ/KG         -190.42
 G, KJ/KG        -16908.5
 S, KJ/(KG)(K)    10.4032

 M, (1/n)          21.100
 (dLV/dLP)t      -1.00013
 (dLV/dLT)p        1.0008
 Cp, KJ/(KG)(K)    1.6940
 GAMMAs            1.3035
 SON VEL,M/SEC      926.3

 DETONATION PARAMETERS

 P/P1              13.753
 T/T1               5.568
 M/M1              0.6928
 RHO/RHO1          1.7114
 DET MACH NUMBER   4.8118
 DET VEL,M/SEC     1585.2

 MOLE FRACTIONS

 *CH             2.513-16
 CH2             1.207-12
 CH3             1.7624-8
 CH2OH           7.290-12
 CH3O            4.420-13
 CH4             1.4594-5
 CH3OH           4.905-10
 *CN             8.746-12
 *CO             2.1041-1
 *CO2            8.2693-3
 COOH            8.328-10
 C2H             6.708-16
 C2H2,acetylene  2.3508-9
 C2H2,vinylidene 2.566-14
 CH2CO,ketene    2.7328-9
 O(CH)2O         3.854-14
 C2H3,vinyl      1.552-13
 CH3CN           2.411-10
 CH3CO,acetyl    5.958-13
 C2H4            5.213-10
 C2H4O,ethylen-o 1.145-16
 CH3CHO,ethanal  5.921-12
 CH3COOH         1.428-13
 C2H5            5.664-14
 C2H6            5.062-12
 C2H5OH          1.302-15
 OCCN            7.878-14
 C2N2            3.565-12
 C2O             4.369-14
 C3H3,2-propynl  2.725-15
 C3H4,allene     4.898-15
 C3H4,propyne    1.315-14
 C3H5,allyl      1.132-16
 C3H6,propylene  2.081-15
 C3O2            5.434-13
 *H              1.5215-5
 HCN             1.6238-5
 HCO             3.7876-8
 HCCO            3.696-13
 HNC             3.9056-7
 HNCO            6.1184-7
 HNO             1.340-12
 HNO2            3.544-16
 HO2             7.920-16
 *H2             2.5808-1
 HCHO,formaldehy 3.2166-7
 HCOOH           4.3609-8
 H2O             3.3422-2
 H2O2            3.229-14
 *N              5.738-13
 NCO             1.177-11
 *NH             2.691-11
 NH2             8.7969-9
 NH3             4.9611-5
 NH2OH           1.328-13
 *NO             2.2729-9
 *N2             4.8972-1
 N2H2            4.203-13
 N2H4            5.638-15
 N2O             3.916-13
 N3H             1.205-15
 *O              4.470-12
 *OH             1.0898-7
 *O2             2.612-13

  * THERMODYNAMIC PROPERTIES FITTED TO 20000.K


                     DETONATION PROPERTIES OF AN IDEAL REACTING GAS
 CASE =                

             REACTANT                       MOLES         ENERGY      TEMP
                                                         KJ/KG-MOL      K
 FUEL        C3H8                         1.0000000   -104543.521    300.000
 OXIDANT     O2                           5.0000000        54.358    300.000
 OXIDANT     N2                          18.8095000        53.881    300.000

 O/F=    5.37165  %FUEL= 15.694523  R,EQ.RATIO= 2.900000  PHI,EQ.RATIO= 2.900000

 UNBURNED GAS

 P1, BAR           1.0000
 T1, K             300.00
 H1, KJ/KG        -370.51
 M1, (1/n)         30.506
 GAMMA1            1.3232
 SON VEL1,M/SEC     328.9

 BURNED GAS

 P, BAR            13.340
 T, K             1600.98
 RHO, KG/CU M    2.0882 0
 H, KJ/KG          429.42
 U, KJ/KG         -209.41
 G, KJ/KG        -16266.1
 S, KJ/(KG)(K)    10.4283

 M, (1/n)          20.837
 (dLV/dLP)t      -1.00025
 (dLV/dLT)p        1.0018
 Cp, KJ/(KG)(K)    1.6999
 GAMMAs            1.3077
 SON VEL,M/SEC      914.0

 DETONATION PARAMETERS

 P/P1              13.340
 T/T1               5.337
 M/M1              0.6831
 RHO/RHO1          1.7074
 DET MACH NUMBER   4.7446
 DET VEL,M/SEC     1560.6

 MOLE FRACTIONS

 CH2             7.696-13
 CH3             2.4483-8
 CH2OH           5.833-12
 CH3O            3.139-13
 CH4             4.1166-5
 CH3OH           7.144-10
 *CN             4.556-12
 *CO             2.1545-1
 *CO2            6.9787-3
 COOH            4.067-10
 C2H             4.852-16
 C2H2,acetylene  4.9564-9
 C2H2,vinylidene 3.079-14
 CH2CO,ketene    4.7549-9
 O(CH)2O         3.770-14
 C2H3,vinyl      2.711-13
 CH3CN           8.427-10
 CH3CO,acetyl    9.270-13
 C2H4            1.9978-9
 C2H4O,ethylen-o 2.083-16
 CH3CHO,ethanal  1.543-11
 CH3COOH         2.859-13
 C2H5            1.796-13
 C2H6            3.066-11
 C2H5OH          4.313-15
 OCCN            5.747-14
 C2N2            5.320-12
 C2O             2.539-14
 C3H3,2-propynl  8.501-15
 C3H4,allene     2.421-14
 C3H4,propyne    6.641-14
 C3H5,allyl      6.127-16
 C3H6,propylene  1.824-14
 C3O2            7.185-13
 *H              7.8270-6
 HCN             2.2042-5
 HCO             2.4428-8
 HCCO            3.116-13
 HNC             4.3628-7
 HNCO            6.2833-7
 HNO             3.436-13
 *H2             2.7013-1
 HCHO,formaldehy 3.3890-7
 HCOOH           3.5599-8
 H2O             2.6330-2
 H2O2            6.243-15
 *N              1.298-13
 NCO             5.419-12
 *NH             8.968-12
 NH2             5.0677-9
 NH3             6.0850-5
 NH2OH           5.561-14
 *NO             5.926-10
 *N2             4.8098-1
 N2H2            2.188-13
 N2H4            4.347-15
 N2O             1.012-13
 N3H             4.629-16
 *O              7.183-13
 *OH             3.4930-8
 *O2             3.198-14

  * THERMODYNAMIC PROPERTIES FITTED TO 20000.K


                     DETONATION PROPERTIES OF AN IDEAL REACTING GAS
 CASE =                

             REACTANT                       MOLES         ENERGY      TEMP
                                                         KJ/KG-MOL      K
 FUEL        C3H8                         1.0000000   -104543.521    300.000
 OXIDANT     O2                           5.0000000        54.358    300.000
 OXIDANT     N2                          18.8095000        53.881    300.000

 O/F=    5.19259  %FUEL= 16.148320  R,EQ.RATIO= 3.000000  PHI,EQ.RATIO= 3.000000

 UNBURNED GAS

 P1, BAR           1.0000
 T1, K             300.00
 H1, KJ/KG        -381.28
 M1, (1/n)         30.556
 GAMMA1            1.3213
 SON VEL1,M/SEC     328.4

 BURNED GAS

 P, BAR            12.923
 T, K             1533.07
 RHO, KG/CU M    2.0870 0
 H, KJ/KG          390.95
 U, KJ/KG         -228.27
 G, KJ/KG        -15629.0
 S, KJ/(KG)(K)    10.4495

 M, (1/n)          20.585
 (dLV/dLP)t      -1.00061
 (dLV/dLT)p        1.0050
 Cp, KJ/(KG)(K)    1.7136
 GAMMAs            1.3114
 SON VEL,M/SEC      901.1

 DETONATION PARAMETERS

 P/P1              12.923
 T/T1               5.110
 M/M1              0.6737
 RHO/RHO1          1.7036
 DET MACH NUMBER   4.6744
 DET VEL,M/SEC     1535.2

 MOLE FRACTIONS

 CH2             4.860-13
 CH3             3.5413-8
 CH2OH           4.543-12
 CH3O            2.156-13
 CH4             1.2661-4
 CH3OH           1.0518-9
 *CN             2.338-12
 *CO             2.2036-1
 *CO2            5.6409-3
 COOH            1.827-10
 C2H             3.627-16
 C2H2,acetylene  1.1569-8
 C2H2,vinylidene 3.933-14
 CH2CO,ketene    8.7724-9
 O(CH)2O         3.655-14
 C2H3,vinyl      5.159-13
 CH3CN           3.3689-9
 CH3CO,acetyl    1.514-12
 C2H4            8.7697-9
 C2H4O,ethylen-o 4.012-16
 CH3CHO,ethanal  4.355-11
 CH3COOH         5.923-13
 C2H5            6.417-13
 C2H6            2.182-10
 C2H5OH          1.564-14
 OCCN            4.223-14
 C2N2            8.670-12
 C2O             1.462-14
 C3H3,2-propynl  3.094-14
 C3H4,allene     1.437-13
 C3H4,propyne    4.033-13
 C3H4,cyclo-     1.308-16
 C3H5,allyl      3.996-15
 C3H6,propylene  1.982-13
 C3H6,cyclo-     3.694-16
 C3H6O,acetone   5.381-16
 C3H6O,propanal  1.785-16
 C3H8            1.067-15
 C3O2            9.952-13
 C4H2,butadiyne  1.813-16
 *H              3.8380-6
 HCN             3.1364-5
 HCO             1.5208-8
 HCCO            2.660-13
 HNC             5.0412-7
 HNCO            6.4408-7
 HNO             7.782-14
 *H2             2.8151-1
 HCHO,formaldehy 3.5530-7
 HCOOH           2.7636-8
 H2O             1.9646-2
 H2O2            1.010-15
 *N              2.658-14
 NCO             2.367-12
 *NH             2.767-12
 NH2             2.7953-9
 NH3             7.4960-5
 NH2OH           2.115-14
 *NO             1.370-10
 *N2             4.7260-1
 N2H2            1.087-13
 N2H4            3.261-15
 N2O             2.322-14
 N3H             1.669-16
 *O              9.899-14
 *OH             1.0016-8
 *O2             3.197-15

  * THERMODYNAMIC PROPERTIES FITTED TO 20000.K


                     DETONATION PROPERTIES OF AN IDEAL REACTING GAS
 CASE =                

             REACTANT                       MOLES         ENERGY      TEMP
                                                         KJ/KG-MOL      K
 FUEL        C3H8                         1.0000000   -104543.521    300.000
 OXIDANT     O2                           5.0000000        54.358    300.000
 OXIDANT     N2                          18.8095000        53.881    300.000

 O/F=    5.02509  %FUEL= 16.597258  R,EQ.RATIO= 3.100000  PHI,EQ.RATIO= 3.100000

 UNBURNED GAS

 P1, BAR           1.0000
 T1, K             300.00
 H1, KJ/KG        -391.93
 M1, (1/n)         30.607
 GAMMA1            1.3195
 SON VEL1,M/SEC     327.9

 BURNED GAS

 P, BAR            12.520
 T, K             1468.17
 RHO, KG/CU M    2.0873 0
 H, KJ/KG          353.37
 U, KJ/KG         -246.44
 G, KJ/KG        -15013.7
 S, KJ/(KG)(K)    10.4668

 M, (1/n)          20.352
 (dLV/dLP)t      -1.00179
 (dLV/dLT)p        1.0163
 Cp, KJ/(KG)(K)    1.7595
 GAMMAs            1.3124
 SON VEL,M/SEC      887.2

 DETONATION PARAMETERS

 P/P1              12.520
 T/T1               4.894
 M/M1              0.6649
 RHO/RHO1          1.7011
 DET MACH NUMBER   4.6026
 DET VEL,M/SEC     1509.3

 MOLE FRACTIONS

 CH2             3.175-13
 CH3             5.4726-8
 CH2OH           3.466-12
 CH3O            1.446-13
 CH4             4.2900-4
 CH3OH           1.5556-9
 *CN             1.238-12
 *CO             2.2508-1
 *CO2            4.2488-3
 COOH            7.444-11
 C2H             3.011-16
 C2H2,acetylene  3.1383-8
 C2H2,vinylidene 5.685-14
 CH2CO,ketene    1.7532-8
 O(CH)2O         3.520-14
 C2H3,vinyl      1.128-12
 CH3CN           1.6005-8
 CH3CO,acetyl    2.661-12
 C2H4            4.5716-8
 C2H4O,ethylen-o 8.350-16
 CH3CHO,ethanal  1.350-10
 CH3COOH         1.254-12
 C2H5            2.693-12
 C2H6            1.8727-9
 C2H5OH          6.262-14
 CH3OCH3         1.656-16
 OCCN            3.255-14
 C2N2            1.633-11
 C2O             8.723-15
 C3H3,2-propynl  1.413-13
 C3H4,allene     1.090-12
 C3H4,propyne    3.134-12
 C3H4,cyclo-     7.390-16
 C3H5,allyl      3.339-14
 C3H6,propylene  2.812-12
 C3H6,cyclo-     4.649-15
 C3H6O,acetone   4.864-15
 C3H6O,propanal  1.419-15
 C3H8            2.379-14
 C3O2            1.485-12
 C4H2,butadiyne  1.277-15
 C4H6,butadiene  1.307-15
 *H              1.8206-6
 HCN             4.8002-5
 HCO             9.2367-9
 HCCO            2.387-13
 HNC             6.2098-7
 HNCO            6.5932-7
 HNO             1.555-14
 *H2             2.9186-1
 HCHO,formaldehy 3.7068-7
 HCOOH           1.9888-8
 H2O             1.3526-2
 H2O2            1.331-16
 *N              5.095-15
 NCO             9.991-13
 *NH             8.103-13
 NH2             1.4955-9
 NH3             9.2405-5
 NH2OH           7.223-15
 *NO             2.802-11
 *N2             4.6472-1
 N2H2            5.233-14
 N2H4            2.398-15
 N2O             4.727-15
 *O              1.180-14
 *OH             2.5532-9
 *O2             2.566-16

  * THERMODYNAMIC PROPERTIES FITTED TO 20000.K


                     DETONATION PROPERTIES OF AN IDEAL REACTING GAS
 CASE =                

             REACTANT                       MOLES         ENERGY      TEMP
                                                         KJ/KG-MOL      K
 FUEL        C3H8                         1.0000000   -104543.521    300.000
 OXIDANT     O2                           5.0000000        54.358    300.000
 OXIDANT     N2                          18.8095000        53.881    300.000

 O/F=    4.86806  %FUEL= 17.041414  R,EQ.RATIO= 3.200000  PHI,EQ.RATIO= 3.200000

 UNBURNED GAS

 P1, BAR           1.0000
 T1, K             300.00
 H1, KJ/KG        -402.47
 M1, (1/n)         30.657
 GAMMA1            1.3177
 SON VEL1,M/SEC     327.4

 BURNED GAS

 P, BAR            12.196
 T, K             1412.20
 RHO, KG/CU M    2.0937 0
 H, KJ/KG          320.39
 U, KJ/KG         -262.12
 G, KJ/KG        -14479.7
 S, KJ/(KG)(K)    10.4802

 M, (1/n)          20.157
 (dLV/dLP)t      -1.00527
 (dLV/dLT)p        1.0514
 Cp, KJ/(KG)(K)    1.9088
 GAMMAs            1.3048
 SON VEL,M/SEC      871.8

 DETONATION PARAMETERS

 P/P1              12.196
 T/T1               4.707
 M/M1              0.6575
 RHO/RHO1          1.7036
 DET MACH NUMBER   4.5358
 DET VEL,M/SEC     1485.2

 MOLE FRACTIONS

 CH2             2.384-13
 CH3             9.1939-8
 CH2OH           2.676-12
 CH3O            9.907-14
 CH4             1.5029-3
 CH3OH           2.2294-9
 *CN             7.681-13
 *CO             2.2922-1
 *CO2            2.8973-3
 COOH            2.851-11
 C2H             3.196-16
 C2H2,acetylene  1.0083-7
 C2H2,vinylidene 1.012-13
 CH2CO,ketene    3.7649-8
 O(CH)2O         3.398-14
 C2H3,vinyl      2.953-12
 CH3CN           8.7011-8
 CH3CO,acetyl    5.064-12
 C2H4            2.7005-7
 C2H4O,ethylen-o 1.859-15
 CH3CHO,ethanal  4.360-10
 CH3COOH         2.527-12
 C2H5            1.297-11
 C2H6            1.7606-8
 C2H5OH          2.566-13
 CH3OCH3         5.787-16
 OCCN            2.879-14
 C2N2            3.756-11
 C2O             6.056-15
 C3H3,2-propynl  8.325-13
 C3H4,allene     1.032-11
 C3H4,propyne    3.033-11
 C3H4,cyclo-     5.306-15
 C3H5,allyl      3.458-13
 C3H6,propylene  4.772-11
 C3H6,cyclo-     7.054-14
 C3H6O,acetone   4.815-14
 C3H6O,propanal  1.245-14
 C3H7,n-propyl   4.238-16
 C3H7,i-propyl   4.682-16
 C3H8            6.153-13
 C3O2            2.439-12
 C4H2,butadiyne  1.274-14
 C4H6,butadiene  4.078-14
 C4H6,1butyne    1.136-15
 C4H6,2butyne    1.613-15
 C4H8,1-butene   1.558-15
 C4H8,cis2-buten 8.151-16
 C4H8,tr2-butene 9.176-16
 C4H8,isobutene  1.150-15
 C5H6,1,3cyclo-  2.144-16
 C6H6            1.277-15
 *H              9.0190-7
 HCN             8.0357-5
 HCO             5.7742-9
 HCCO            2.425-13
 HNC             8.4823-7
 HNCO            6.7388-7
 HNO             3.058-15
 *H2             2.9996-1
 HCHO,formaldehy 3.8418-7
 HCOOH           1.2977-8
 H2O             8.4254-3
 *N              1.084-15
 NCO             4.462-13
 *NH             2.559-13
 NH2             8.289-10
 NH3             1.1175-4
 NH2OH           2.340-15
 *NO             5.633-12
 *N2             4.5780-1
 N2H2            2.639-14
 N2H4            1.791-15
 N2O             9.495-16
 *O              1.429-15
 *OH             6.284-10

  * THERMODYNAMIC PROPERTIES FITTED TO 20000.K


                     DETONATION PROPERTIES OF AN IDEAL REACTING GAS
 CASE =                

             REACTANT                       MOLES         ENERGY      TEMP
                                                         KJ/KG-MOL      K
 FUEL        C3H8                         1.0000000   -104543.521    300.000
 OXIDANT     O2                           5.0000000        54.358    300.000
 OXIDANT     N2                          18.8095000        53.881    300.000

 O/F=    4.72054  %FUEL= 17.480865  R,EQ.RATIO= 3.300000  PHI,EQ.RATIO= 3.300000

 UNBURNED GAS

 P1, BAR           1.0000
 T1, K             300.00
 H1, KJ/KG        -412.90
 M1, (1/n)         30.706
 GAMMA1            1.3159
 SON VEL1,M/SEC     327.0

 BURNED GAS

 P, BAR            12.000
 T, K             1373.95
 RHO, KG/CU M    2.1052 0
 H, KJ/KG          295.13
 U, KJ/KG         -274.89
 G, KJ/KG        -14118.8
 S, KJ/(KG)(K)    10.4909

 M, (1/n)          20.041
 (dLV/dLP)t      -1.01009
 (dLV/dLT)p        1.1026
 Cp, KJ/(KG)(K)    2.1420
 GAMMAs            1.2909
 SON VEL,M/SEC      857.8

 DETONATION PARAMETERS

 P/P1              12.000
 T/T1               4.580
 M/M1              0.6527
 RHO/RHO1          1.7101
 DET MACH NUMBER   4.4867
 DET VEL,M/SEC     1466.9

 MOLE FRACTIONS

 CH2             2.256-13
 CH3             1.5626-7
 CH2OH           2.198-12
 CH3O            7.465-14
 CH4             4.3609-3
 CH3OH           2.8709-9
 *CN             6.357-13
 *CO             2.3198-1
 *CO2            1.8664-3
 COOH            1.202-11
 C2H             4.588-16
 C2H2,acetylene  3.2415-7
 C2H2,vinylidene 2.114-13
 CH2CO,ketene    7.6901-8
 O(CH)2O         3.303-14
 C2H3,vinyl      8.159-12
 CH3CN           4.1044-7
 CH3CO,acetyl    9.451-12
 C2H4            1.3483-6
 C2H4O,ethylen-o 3.885-15
 CH3CHO,ethanal  1.1949-9
 CH3COOH         4.190-12
 C2H5            5.564-11
 C2H6            1.2290-7
 C2H5OH          8.331-13
 CH3OCH3         1.673-15
 OCCN            3.094-14
 C2N2            9.535-11
 C2O             5.448-15
 C3H3,2-propynl  4.886-12
 C3H4,allene     8.546-11
 C3H4,propyne    2.553-10
 C3H4,cyclo-     3.591-14
 C3H5,allyl      3.052-12
 C3H6,propylene  6.026-10
 C3H6,cyclo-     8.212-13
 C3H6O,acetone   3.499-13
 C3H6O,propanal  8.292-14
 C3H7,n-propyl   4.431-15
 C3H7,i-propyl   5.033-15
 C3H8            1.053-11
 C3O2            4.126-12
 C4H2,butadiyne  1.294-13
 C4H6,butadiene  9.446-13
 C4H6,1butyne    2.340-14
 C4H6,2butyne    3.515-14
 C4H6,cyclo-     7.394-16
 C4H8,1-butene   4.824-14
 C4H8,cis2-buten 2.590-14
 C4H8,tr2-butene 2.919-14
 C4H8,isobutene  3.707-14
 C4H10,n-butane  9.060-16
 C4H10,isobutane 3.633-16
 C5H6,1,3cyclo-  1.105-14
 C6H6            1.735-13
 C7H8            1.143-16
 *H              5.3759-7
 HCN             1.3705-4
 HCO             4.0835-9
 HCCO            2.874-13
 HNC             1.2470-6
 HNCO            6.8353-7
 HNO             7.923-16
 *H2             3.0377-1
 HCHO,formaldehy 3.9218-7
 HCOOH           8.0663-9
 H2O             5.0450-3
 *N              3.499-16
 NCO             2.479-13
 *NH             1.099-13
 NH2             5.355-10
 NH3             1.2732-4
 NH2OH           8.699-16
 *NO             1.487-12
 *N2             4.5272-1
 N2H2            1.594-14
 N2H4            1.435-15
 N2O             2.509-16
 *O              2.602-16
 *OH             1.915-10

  * THERMODYNAMIC PROPERTIES FITTED TO 20000.K


                     DETONATION PROPERTIES OF AN IDEAL REACTING GAS
 CASE =                

             REACTANT                       MOLES         ENERGY      TEMP
                                                         KJ/KG-MOL      K
 FUEL        C3H8                         1.0000000   -104543.521    300.000
 OXIDANT     O2                           5.0000000        54.358    300.000
 OXIDANT     N2                          18.8095000        53.881    300.000

 O/F=    4.58170  %FUEL= 17.915685  R,EQ.RATIO= 3.400000  PHI,EQ.RATIO= 3.400000

 UNBURNED GAS

 P1, BAR           1.0000
 T1, K             300.00
 H1, KJ/KG        -423.22
 M1, (1/n)         30.755
 GAMMA1            1.3142
 SON VEL1,M/SEC     326.5

 BURNED GAS

 P, BAR            11.933
 T, K             1355.18
 RHO, KG/CU M    2.1166 0
 H, KJ/KG          278.38
 U, KJ/KG         -285.38
 G, KJ/KG        -13951.8
 S, KJ/(KG)(K)    10.5006

 M, (1/n)          19.986
 MW, MOL WT        19.894
 (dLV/dLP)t      -1.01185
 (dLV/dLT)p        1.1231
 Cp, KJ/(KG)(K)    2.2845
 GAMMAs            1.2785
 SON VEL,M/SEC      849.0

 DETONATION PARAMETERS

 P/P1              11.933
 T/T1               4.517
 M/M1              0.6499
 RHO/RHO1          1.7166
 DET MACH NUMBER   4.4640
 DET VEL,M/SEC     1457.4

 MOLE FRACTIONS

 CH2             1.829-13
 CH3             1.7157-7
 CH2OH           1.977-12
 CH3O            6.428-14
 CH4             6.3200-3
 CH3OH           3.2634-9
 *CN             4.778-13
 *CO             2.2963-1
 *CO2            1.7431-3
 COOH            9.076-12
 C2H             3.826-16
 C2H2,acetylene  4.0976-7
 C2H2,vinylidene 2.142-13
 CH2CO,ketene    9.1618-8
 O(CH)2O         3.200-14
 C2H3,vinyl      9.579-12
 CH3CN           6.3381-7
 CH3CO,acetyl    1.079-11
 C2H4            2.1510-6
 C2H4O,ethylen-o 4.719-15
 CH3CHO,ethanal  1.6671-9
 CH3COOH         5.374-12
 C2H5            8.246-11
 C2H6            2.3449-7
 C2H5OH          1.277-12
 CH3OCH3         2.417-15
 OCCN            2.635-14
 C2N2            1.061-10
 C2O             4.236-15
 C3H3,2-propynl  7.034-12
 C3H4,allene     1.473-10
 C3H4,propyne    4.436-10
 C3H4,cyclo-     5.583-14
 C3H5,allyl      5.455-12
 C3H6,propylene  1.2986-9
 C3H6,cyclo-     1.698-12
 C3H6O,acetone   6.755-13
 C3H6O,propanal  1.531-13
 C3H7,n-propyl   8.701-15
 C3H7,i-propyl   1.003-14
 C3H8            2.670-11
 C3H8O,1propanol 1.357-16
 C3H8O,2propanol 1.820-16
 C3O2            4.392-12
 C4H2,butadiyne  2.050-13
 C4H6,butadiene  2.316-12
 C4H6,1butyne    5.400-14
 C4H6,2butyne    8.350-14
 C4H6,cyclo-     1.730-15
 C4H8,1-butene   1.382-13
 C4H8,cis2-buten 7.520-14
 C4H8,tr2-butene 8.477-14
 C4H8,isobutene  1.084-13
 C4H10,n-butane  3.051-15
 C4H10,isobutane 1.236-15
 C5H6,1,3cyclo-  3.399-14
 C5H8,cyclo-     2.943-16
 C6H6            7.313-13
 C7H8            6.515-16
 *H              4.1117-7
 HCN             1.4967-4
 HCO             3.3778-9
 HCCO            2.582-13
 HNC             1.2622-6
 HNCO            6.8016-7
 HNO             4.704-16
 *H2             3.0577-1
 HCHO,formaldehy 3.9289-7
 HCOOH           7.4545-9
 H2O             4.6126-3
 *N              1.948-16
 NCO             1.806-13
 *NH             7.105-14
 NH2             4.283-10
 NH3             1.3665-4
 NH2OH           6.259-16
 *NO             8.876-13
 *N2             4.4701-1
 N2H2            1.233-14
 N2H4            1.292-15
 N2O             1.500-16
 *O              1.285-16
 *OH             1.235-10
 C(gr)           4.6322-3

  * THERMODYNAMIC PROPERTIES FITTED TO 20000.K


                     DETONATION PROPERTIES OF AN IDEAL REACTING GAS
 CASE =                

             REACTANT                       MOLES         ENERGY      TEMP
                                                         KJ/KG-MOL      K
 FUEL        C3H8                         1.0000000   -104543.521    300.000
 OXIDANT     O2                           5.0000000        54.358    300.000
 OXIDANT     N2                          18.8095000        53.881    300.000

 O/F=    4.45080  %FUEL= 18.345946  R,EQ.RATIO= 3.500000  PHI,EQ.RATIO= 3.500000

 UNBURNED GAS

 P1, BAR           1.0000
 T1, K             300.00
 H1, KJ/KG        -433.42
 M1, (1/n)         30.804
 GAMMA1            1.3125
 SON VEL1,M/SEC     326.0

 BURNED GAS

 P, BAR            11.871
 T, K             1340.26
 RHO, KG/CU M    2.1238 0
 H, KJ/KG          262.62
 U, KJ/KG         -296.32
 G, KJ/KG        -13823.8
 S, KJ/(KG)(K)    10.5102

 M, (1/n)          19.937
 MW, MOL WT        19.703
 (dLV/dLP)t      -1.01327
 (dLV/dLT)p        1.1398
 Cp, KJ/(KG)(K)    2.3826
 GAMMAs            1.2725
 SON VEL,M/SEC      843.3

 DETONATION PARAMETERS

 P/P1              11.871
 T/T1               4.468
 M/M1              0.6472
 RHO/RHO1          1.7197
 DET MACH NUMBER   4.4486
 DET VEL,M/SEC     1450.3

 MOLE FRACTIONS

 CH2             1.262-13
 CH3             1.5200-7
 CH2OH           1.808-12
 CH3O            5.672-14
 CH4             7.0393-3
 CH3OH           3.6205-9
 *CN             3.080-13
 *CO             2.2504-1
 *CO2            1.9781-3
 COOH            8.684-12
 C2H             2.198-16
 C2H2,acetylene  3.3140-7
 C2H2,vinylidene 1.447-13
 CH2CO,ketene    8.5716-8
 O(CH)2O         3.071-14
 C2H3,vinyl      7.315-12
 CH3CN           6.0454-7
 CH3CO,acetyl    9.785-12
 C2H4            2.1146-6
 C2H4O,ethylen-o 4.510-15
 CH3CHO,ethanal  1.7839-9
 CH3COOH         6.520-12
 C2H5            7.656-11
 C2H6            2.6822-7
 C2H5OH          1.484-12
 CH3OCH3         2.675-15
 OCCN            1.863-14
 C2N2            7.675-11
 C2O             2.783-15
 C3H3,2-propynl  5.177-12
 C3H4,allene     1.259-10
 C3H4,propyne    3.817-10
 C3H4,cyclo-     4.387-14
 C3H5,allyl      4.817-12
 C3H6,propylene  1.3389-9
 C3H6,cyclo-     1.692-12
 C3H6O,acetone   7.731-13
 C3H6O,propanal  1.690-13
 C3H7,n-propyl   8.341-15
 C3H7,i-propyl   9.723-15
 C3H8            3.161-11
 C3H8O,1propanol 1.635-16
 C3H8O,2propanol 2.222-16
 C3O2            3.695-12
 C4H2,butadiyne  1.327-13
 C4H6,butadiene  2.165-12
 C4H6,1butyne    4.806-14
 C4H6,2butyne    7.608-14
 C4H6,cyclo-     1.556-15
 C4H8,1-butene   1.476-13
 C4H8,cis2-buten 8.114-14
 C4H8,tr2-butene 9.151-14
 C4H8,isobutene  1.176-13
 C4H10,n-butane  3.735-15
 C4H10,isobutane 1.526-15
 C5H6,1,3cyclo-  3.122-14
 C5H8,cyclo-     3.039-16
 C6H6            7.083-13
 C7H8            6.624-16
 *H              3.3057-7
 HCN             1.3115-4
 HCO             2.8680-9
 HCCO            1.914-13
 HNC             1.0396-6
 HNCO            6.7074-7
 HNO             3.731-16
 *H2             3.0831-1
 HCHO,formaldehy 3.9104-7
 HCOOH           8.4355-9
 H2O             5.2206-3
 *N              1.205-16
 NCO             1.378-13
 *NH             4.978-14
 NH2             3.578-10
 NH3             1.4545-4
 NH2OH           5.840-16
 *NO             7.054-13
 *N2             4.4040-1
 N2H2            1.002-14
 N2H4            1.194-15
 N2O             1.192-16
 *OH             1.049-10
 C(gr)           1.1731-2

  * THERMODYNAMIC PROPERTIES FITTED TO 20000.K


                     DETONATION PROPERTIES OF AN IDEAL REACTING GAS
 CASE =                

             REACTANT                       MOLES         ENERGY      TEMP
                                                         KJ/KG-MOL      K
 FUEL        C3H8                         1.0000000   -104543.521    300.000
 OXIDANT     O2                           5.0000000        54.358    300.000
 OXIDANT     N2                          18.8095000        53.881    300.000

 O/F=    4.32716  %FUEL= 18.771720  R,EQ.RATIO= 3.600000  PHI,EQ.RATIO= 3.600000

 UNBURNED GAS

 P1, BAR           1.0000
 T1, K             300.00
 H1, KJ/KG        -443.53
 M1, (1/n)         30.853
 GAMMA1            1.3109
 SON VEL1,M/SEC     325.5

 BURNED GAS

 P, BAR            11.815
 T, K             1326.40
 RHO, KG/CU M    2.1309 0
 H, KJ/KG          247.40
 U, KJ/KG         -307.04
 G, KJ/KG        -13705.6
 S, KJ/(KG)(K)    10.5195

 M, (1/n)          19.891
 MW, MOL WT        19.520
 (dLV/dLP)t      -1.01476
 (dLV/dLT)p        1.1575
 Cp, KJ/(KG)(K)    2.4873
 GAMMAs            1.2664
 SON VEL,M/SEC      838.0

 DETONATION PARAMETERS

 P/P1              11.815
 T/T1               4.421
 M/M1              0.6447
 RHO/RHO1          1.7228
 DET MACH NUMBER   4.4345
 DET VEL,M/SEC     1443.6

 MOLE FRACTIONS

 CH2             8.873-14
 CH3             1.3544-7
 CH2OH           1.659-12
 CH3O            5.032-14
 CH4             7.7965-3
 CH3OH           3.9923-9
 *CN             2.028-13
 *CO             2.2051-1
 *CO2            2.2266-3
 COOH            8.314-12
 C2H             1.299-16
 C2H2,acetylene  2.7082-7
 C2H2,vinylidene 9.969-14
 CH2CO,ketene    8.0387-8
 O(CH)2O         2.950-14
 C2H3,vinyl      5.661-12
 CH3CN           5.7787-7
 CH3CO,acetyl    8.908-12
 C2H4            2.0801-6
 C2H4O,ethylen-o 4.318-15
 CH3CHO,ethanal  1.9008-9
 CH3COOH         7.824-12
 C2H5            7.133-11
 C2H6            3.0471-7
 C2H5OH          1.710-12
 CH3OCH3         2.945-15
 OCCN            1.339-14
 C2N2            5.642-11
 C2O             1.866-15
 C3H3,2-propynl  3.869-12
 C3H4,allene     1.084-10
 C3H4,propyne    3.308-10
 C3H4,cyclo-     3.489-14
 C3H5,allyl      4.280-12
 C3H6,propylene  1.3783-9
 C3H6,cyclo-     1.687-12
 C3H6O,acetone   8.782-13
 C3H6O,propanal  1.854-13
 C3H7,n-propyl   8.013-15
 C3H7,i-propyl   9.444-15
 C3H8            3.711-11
 C3H8O,1propanol 1.951-16
 C3H8O,2propanol 2.684-16
 C3O2            3.130-12
 C4H2,butadiyne  8.782-14
 C4H6,butadiene  2.031-12
 C4H6,1butyne    4.303-14
 C4H6,2butyne    6.964-14
 C4H6,cyclo-     1.408-15
 C4H8,1-butene   1.571-13
 C4H8,cis2-buten 8.722-14
 C4H8,tr2-butene 9.841-14
 C4H8,isobutene  1.272-13
 C4H10,n-butane  4.529-15
 C4H10,isobutane 1.865-15
 C5H6,1,3cyclo-  2.880-14
 C5H8,cyclo-     3.134-16
 C6H6            6.871-13
 C7H8            6.730-16
 *H              2.6864-7
 HCN             1.1565-4
 HCO             2.4529-9
 HCCO            1.439-13
 HNC             8.6444-7
 HNCO            6.6127-7
 HNO             2.992-16
 *H2             3.1064-1
 HCHO,formaldehy 3.8891-7
 HCOOH           9.4727-9
 H2O             5.8660-3
 NCO             1.065-13
 *NH             3.550-14
 NH2             3.016-10
 NH3             1.5429-4
 NH2OH           5.464-16
 *NO             5.665-13
 *N2             4.3405-1
 N2H2            8.220-15
 N2H4            1.108-15
 *OH             8.973-11
 C(gr)           1.8639-2

  * THERMODYNAMIC PROPERTIES FITTED TO 20000.K



