
 *******************************************************************************

         NASA-GLENN CHEMICAL EQUILIBRIUM PROGRAM CEA2, MAY 21, 2004
                   BY  BONNIE MCBRIDE AND SANFORD GORDON
      REFS: NASA RP-1311, PART I, 1994 AND NASA RP-1311, PART II, 1996

 *******************************************************************************



 problem    phi,eq.ratio=2.1,2.2,2.3,2.4,2.5,2.6,2.7,2.8,2.9,3,3.1,3.2,3.3,3.4,3.
 5,3.6,
       det   t,k=300,  p,bar=1,
 react
   fuel=C3H8 moles=1 t,k=300
   oxid=O2 moles=5 t,k=300
 output
      trace=1e-16 siunits short
 end


                     DETONATION PROPERTIES OF AN IDEAL REACTING GAS
 CASE =                

             REACTANT                       MOLES         ENERGY      TEMP
                                                         KJ/KG-MOL      K
 FUEL        C3H8                         1.0000000   -104543.521    300.000
 OXIDANT     O2                           5.0000000        54.358    300.000

 O/F=    1.72778  %FUEL= 36.659821  R,EQ.RATIO= 2.100000  PHI,EQ.RATIO= 2.100000

 UNBURNED GAS

 P1, BAR           1.0000
 T1, K             300.00
 H1, KJ/KG        -868.07
 M1, (1/n)         35.577
 GAMMA1            1.2427
 SON VEL1,M/SEC     295.2

 BURNED GAS

 P, BAR            44.890
 T, K             3448.06
 RHO, KG/CU M    2.6096 0
 H, KJ/KG         1511.50
 U, KJ/KG         -208.72
 G, KJ/KG        -47174.3
 S, KJ/(KG)(K)    14.1198

 M, (1/n)          16.666
 (dLV/dLP)t      -1.01551
 (dLV/dLT)p        1.2635
 Cp, KJ/(KG)(K)    4.7690
 GAMMAs            1.1786
 SON VEL,M/SEC     1423.9

 DETONATION PARAMETERS

 P/P1              44.890
 T/T1              11.494
 M/M1              0.4684
 RHO/RHO1          1.8296
 DET MACH NUMBER   8.8256
 DET VEL,M/SEC     2605.1

 MOLE FRACTIONS

 *C              5.9953-9
 *CH             5.4116-9
 CH2             1.9862-8
 CH3             6.3389-8
 CH2OH           3.0347-9
 CH3O            9.338-10
 CH4             3.4653-8
 CH3OH           4.170-10
 CH3OOH          5.214-15
 *CO             3.8654-1
 *CO2            2.9072-2
 COOH            4.4149-6
 *C2             8.112-13
 C2H             4.483-11
 C2H2,acetylene  1.0734-9
 C2H2,vinylidene 8.251-12
 CH2CO,ketene    2.0098-9
 O(CH)2O         4.916-12
 HO(CO)2OH       3.950-14
 C2H3,vinyl      1.410-12
 CH3CO,acetyl    4.214-12
 C2H4            1.029-12
 C2H4O,ethylen-o 3.063-16
 CH3CHO,ethanal  2.007-13
 CH3COOH         2.220-14
 OHCH2COOH       9.127-16
 C2H5            2.439-15
 C2H6            2.423-16
 C2O             2.9046-9
 *C3             9.728-16
 C3H3,2-propynl  9.959-16
 C3O2            1.394-11
 *H              4.4645-2
 HCO             3.9506-5
 HCCO            6.409-10
 HO2             1.9719-6
 *H2             3.2488-1
 HCHO,formaldehy 2.3692-6
 HCOOH           1.3379-6
 H2O             2.0038-1
 H2O2            6.4707-7
 *O              9.8569-4
 *OH             1.3200-2
 *O2             2.3440-4
 O3              8.143-11

  * THERMODYNAMIC PROPERTIES FITTED TO 20000.K


                     DETONATION PROPERTIES OF AN IDEAL REACTING GAS
 CASE =                

             REACTANT                       MOLES         ENERGY      TEMP
                                                         KJ/KG-MOL      K
 FUEL        C3H8                         1.0000000   -104543.521    300.000
 OXIDANT     O2                           5.0000000        54.358    300.000

 O/F=    1.64925  %FUEL= 37.746582  R,EQ.RATIO= 2.200000  PHI,EQ.RATIO= 2.200000

 UNBURNED GAS

 P1, BAR           1.0000
 T1, K             300.00
 H1, KJ/KG        -893.85
 M1, (1/n)         35.695
 GAMMA1            1.2397
 SON VEL1,M/SEC     294.3

 BURNED GAS

 P, BAR            44.634
 T, K             3352.55
 RHO, KG/CU M    2.6095 0
 H, KJ/KG         1466.76
 U, KJ/KG         -243.68
 G, KJ/KG        -46271.8
 S, KJ/(KG)(K)    14.2395

 M, (1/n)          16.297
 (dLV/dLP)t      -1.01195
 (dLV/dLT)p        1.2068
 Cp, KJ/(KG)(K)    4.3817
 GAMMAs            1.1871
 SON VEL,M/SEC     1424.9

 DETONATION PARAMETERS

 P/P1              44.634
 T/T1              11.175
 M/M1              0.4566
 RHO/RHO1          1.8235
 DET MACH NUMBER   8.8283
 DET VEL,M/SEC     2598.4

 MOLE FRACTIONS

 *C              4.0922-9
 *CH             4.3425-9
 CH2             2.0540-8
 CH3             8.6871-8
 CH2OH           3.1758-9
 CH3O            9.280-10
 CH4             6.0247-8
 CH3OH           5.425-10
 CH3OOH          4.069-15
 *CO             3.9344-1
 *CO2            2.5031-2
 COOH            3.3143-6
 *C2             6.902-13
 C2H             5.122-11
 C2H2,acetylene  1.7822-9
 C2H2,vinylidene 1.157-11
 CH2CO,ketene    2.8566-9
 O(CH)2O         5.255-12
 HO(CO)2OH       2.907-14
 C2H3,vinyl      2.297-12
 CH3CO,acetyl    5.947-12
 C2H4            2.216-12
 C2H4O,ethylen-o 4.684-16
 CH3CHO,ethanal  3.464-13
 CH3COOH         3.168-14
 OHCH2COOH       9.562-16
 C2H5            5.126-15
 C2H6            6.446-16
 C2O             2.7091-9
 *C3             1.159-15
 C3H3,2-propynl  2.153-15
 C3O2            1.690-11
 *H              3.7159-2
 HCO             3.5935-5
 HCCO            6.997-10
 HO2             8.5370-7
 *H2             3.5387-1
 HCHO,formaldehy 2.5989-6
 HCOOH           1.2167-6
 H2O             1.8122-1
 H2O2            3.3794-7
 *O              4.9635-4
 *OH             8.6415-3
 *O2             9.8492-5
 O3              1.842-11

  * THERMODYNAMIC PROPERTIES FITTED TO 20000.K


                     DETONATION PROPERTIES OF AN IDEAL REACTING GAS
 CASE =                

             REACTANT                       MOLES         ENERGY      TEMP
                                                         KJ/KG-MOL      K
 FUEL        C3H8                         1.0000000   -104543.521    300.000
 OXIDANT     O2                           5.0000000        54.358    300.000

 O/F=    1.57754  %FUEL= 38.796681  R,EQ.RATIO= 2.300000  PHI,EQ.RATIO= 2.300000

 UNBURNED GAS

 P1, BAR           1.0000
 T1, K             300.00
 H1, KJ/KG        -918.77
 M1, (1/n)         35.810
 GAMMA1            1.2368
 SON VEL1,M/SEC     293.5

 BURNED GAS

 P, BAR            44.211
 T, K             3250.54
 RHO, KG/CU M    2.6085 0
 H, KJ/KG         1414.43
 U, KJ/KG         -280.46
 G, KJ/KG        -45224.8
 S, KJ/(KG)(K)    14.3481

 M, (1/n)          15.946
 (dLV/dLP)t      -1.00906
 (dLV/dLT)p        1.1600
 Cp, KJ/(KG)(K)    4.0512
 GAMMAs            1.1964
 SON VEL,M/SEC     1424.0

 DETONATION PARAMETERS

 P/P1              44.211
 T/T1              10.835
 M/M1              0.4453
 RHO/RHO1          1.8169
 DET MACH NUMBER   8.8149
 DET VEL,M/SEC     2587.3

 MOLE FRACTIONS

 *C              2.5850-9
 *CH             3.2556-9
 CH2             2.0269-8
 CH3             1.1656-7
 CH2OH           3.2084-9
 CH3O            8.850-10
 CH4             1.0480-7
 CH3OH           6.934-10
 CH3OOH          2.980-15
 *CO             3.9935-1
 *CO2            2.1502-2
 COOH            2.4080-6
 *C2             5.432-13
 C2H             5.563-11
 C2H2,acetylene  2.9219-9
 C2H2,vinylidene 1.566-11
 CH2CO,ketene    4.0135-9
 O(CH)2O         5.467-12
 HO(CO)2OH       2.072-14
 C2H3,vinyl      3.640-12
 CH3CO,acetyl    8.192-12
 C2H4            4.764-12
 C2H4O,ethylen-o 6.986-16
 CH3CHO,ethanal  5.921-13
 CH3COOH         4.466-14
 OHCH2COOH       9.717-16
 C2H5            1.058-14
 C2H6            1.719-15
 C2O             2.4195-9
 *C3             1.296-15
 C3H3,2-propynl  4.563-15
 C3H4,allene     1.227-16
 C3H4,propyne    2.551-16
 C3O2            2.016-11
 *H              2.9914-2
 HCO             3.1729-5
 HCCO            7.379-10
 HO2             3.4256-7
 *H2             3.8164-1
 HCHO,formaldehy 2.8041-6
 HCOOH           1.0855-6
 H2O             1.6186-1
 H2O2            1.6569-7
 *O              2.3399-4
 *OH             5.4166-3
 *O2             3.8665-5
 O3              3.682-12

  * THERMODYNAMIC PROPERTIES FITTED TO 20000.K


                     DETONATION PROPERTIES OF AN IDEAL REACTING GAS
 CASE =                

             REACTANT                       MOLES         ENERGY      TEMP
                                                         KJ/KG-MOL      K
 FUEL        C3H8                         1.0000000   -104543.521    300.000
 OXIDANT     O2                           5.0000000        54.358    300.000

 O/F=    1.51181  %FUEL= 39.811940  R,EQ.RATIO= 2.400000  PHI,EQ.RATIO= 2.400000

 UNBURNED GAS

 P1, BAR           1.0000
 T1, K             300.00
 H1, KJ/KG        -942.85
 M1, (1/n)         35.922
 GAMMA1            1.2340
 SON VEL1,M/SEC     292.7

 BURNED GAS

 P, BAR            43.627
 T, K             3142.80
 RHO, KG/CU M    2.6065 0
 H, KJ/KG         1354.82
 U, KJ/KG         -318.97
 G, KJ/KG        -44046.5
 S, KJ/(KG)(K)    14.4461

 M, (1/n)          15.612
 (dLV/dLP)t      -1.00672
 (dLV/dLT)p        1.1216
 Cp, KJ/(KG)(K)    3.7681
 GAMMAs            1.2064
 SON VEL,M/SEC     1421.0

 DETONATION PARAMETERS

 P/P1              43.627
 T/T1              10.476
 M/M1              0.4346
 RHO/RHO1          1.8099
 DET MACH NUMBER   8.7859
 DET VEL,M/SEC     2571.8

 MOLE FRACTIONS

 *C              1.5050-9
 *CH             2.2752-9
 CH2             1.9094-8
 CH3             1.5364-7
 CH2OH           3.1318-9
 CH3O            8.103-10
 CH4             1.8362-7
 CH3OH           8.738-10
 CH3OOH          2.046-15
 *CO             4.0441-1
 *CO2            1.8413-2
 COOH            1.6893-6
 *C2             3.947-13
 C2H             5.753-11
 C2H2,acetylene  4.7572-9
 C2H2,vinylidene 2.053-11
 CH2CO,ketene    5.5986-9
 O(CH)2O         5.545-12
 HO(CO)2OH       1.430-14
 C2H3,vinyl      5.641-12
 CH3CO,acetyl    1.107-11
 C2H4            1.031-11
 C2H4O,ethylen-o 1.022-15
 CH3CHO,ethanal  1.009-12
 CH3COOH         6.251-14
 OHCH2COOH       9.601-16
 C2H5            2.166-14
 C2H6            4.646-15
 C2H5OH          1.083-16
 C2O             2.0688-9
 *C3             1.362-15
 C3H3,2-propynl  9.570-15
 C3H4,allene     3.148-16
 C3H4,propyne    6.609-16
 C3O2            2.375-11
 *H              2.3248-2
 HCO             2.7177-5
 HCCO            7.526-10
 HO2             1.2636-7
 *H2             4.0788-1
 HCHO,formaldehy 2.9802-6
 HCOOH           9.5022-7
 H2O             1.4266-1
 H2O2            7.5791-8
 *O              1.0254-4
 *OH             3.2369-3
 *O2             1.4060-5
 O3              6.412-13

  * THERMODYNAMIC PROPERTIES FITTED TO 20000.K


                     DETONATION PROPERTIES OF AN IDEAL REACTING GAS
 CASE =                

             REACTANT                       MOLES         ENERGY      TEMP
                                                         KJ/KG-MOL      K
 FUEL        C3H8                         1.0000000   -104543.521    300.000
 OXIDANT     O2                           5.0000000        54.358    300.000

 O/F=    1.45134  %FUEL= 40.794066  R,EQ.RATIO= 2.500000  PHI,EQ.RATIO= 2.500000

 UNBURNED GAS

 P1, BAR           1.0000
 T1, K             300.00
 H1, KJ/KG        -966.15
 M1, (1/n)         36.031
 GAMMA1            1.2314
 SON VEL1,M/SEC     292.0

 BURNED GAS

 P, BAR            42.889
 T, K             3029.95
 RHO, KG/CU M    2.6035 0
 H, KJ/KG         1288.24
 U, KJ/KG         -359.09
 G, KJ/KG        -42748.0
 S, KJ/(KG)(K)    14.5336

 M, (1/n)          15.293
 (dLV/dLP)t      -1.00485
 (dLV/dLT)p        1.0903
 Cp, KJ/(KG)(K)    3.5260
 GAMMAs            1.2172
 SON VEL,M/SEC     1416.0

 DETONATION PARAMETERS

 P/P1              42.889
 T/T1              10.100
 M/M1              0.4244
 RHO/RHO1          1.8024
 DET MACH NUMBER   8.7413
 DET VEL,M/SEC     2552.2

 MOLE FRACTIONS

 *C              8.032-10
 *CH             1.4774-9
 CH2             1.7173-8
 CH3             1.9978-7
 CH2OH           2.9553-9
 CH3O            7.126-10
 CH4             3.2667-7
 CH3OH           1.0898-9
 CH3OOH          1.312-15
 *CO             4.0872-1
 *CO2            1.5694-2
 COOH            1.1403-6
 *C2             2.641-13
 C2H             5.674-11
 C2H2,acetylene  7.7474-9
 C2H2,vinylidene 2.617-11
 CH2CO,ketene    7.7947-9
 O(CH)2O         5.491-12
 HO(CO)2OH       9.517-15
 C2H3,vinyl      8.608-12
 CH3CO,acetyl    1.473-11
 C2H4            2.269-11
 C2H4O,ethylen-o 1.475-15
 CH3CHO,ethanal  1.730-12
 CH3COOH         8.738-14
 OHCH2COOH       9.242-16
 C2H5            4.438-14
 C2H6            1.290-14
 C2H5OH          2.120-16
 C2O             1.6926-9
 *C3             1.349-15
 C3H3,2-propynl  2.007-14
 C3H4,allene     8.210-16
 C3H4,propyne    1.742-15
 C3O2            2.773-11
 *H              1.7394-2
 HCO             2.2550-5
 HCCO            7.436-10
 HO2             4.2365-8
 *H2             4.3239-1
 HCHO,formaldehy 3.1242-6
 HCOOH           8.1540-7
 H2O             1.2390-1
 H2O2            3.2061-8
 *O              4.1384-5
 *OH             1.8332-3
 *O2             4.6806-6
 O3              9.544-14

  * THERMODYNAMIC PROPERTIES FITTED TO 20000.K


                     DETONATION PROPERTIES OF AN IDEAL REACTING GAS
 CASE =                

             REACTANT                       MOLES         ENERGY      TEMP
                                                         KJ/KG-MOL      K
 FUEL        C3H8                         1.0000000   -104543.521    300.000
 OXIDANT     O2                           5.0000000        54.358    300.000

 O/F=    1.39552  %FUEL= 41.744655  R,EQ.RATIO= 2.600000  PHI,EQ.RATIO= 2.600000

 UNBURNED GAS

 P1, BAR           1.0000
 T1, K             300.00
 H1, KJ/KG        -988.71
 M1, (1/n)         36.137
 GAMMA1            1.2289
 SON VEL1,M/SEC     291.2

 BURNED GAS

 P, BAR            42.004
 T, K             2912.59
 RHO, KG/CU M    2.5998 0
 H, KJ/KG         1215.04
 U, KJ/KG         -400.63
 G, KJ/KG        -41340.4
 S, KJ/(KG)(K)    14.6108

 M, (1/n)          14.989
 (dLV/dLP)t      -1.00339
 (dLV/dLT)p        1.0651
 Cp, KJ/(KG)(K)    3.3208
 GAMMAs            1.2287
 SON VEL,M/SEC     1408.9

 DETONATION PARAMETERS

 P/P1              42.004
 T/T1               9.709
 M/M1              0.4148
 RHO/RHO1          1.7945
 DET MACH NUMBER   8.6810
 DET VEL,M/SEC     2528.3

 MOLE FRACTIONS

 *C              3.904-10
 *CH             8.880-10
 CH2             1.4748-8
 CH3             2.5755-7
 CH2OH           2.6966-9
 CH3O            6.015-10
 CH4             5.9584-7
 CH3OH           1.3505-9
 CH3OOH          7.827-16
 *CO             4.1238-1
 *CO2            1.3284-2
 COOH            7.3688-7
 *C2             1.625-13
 C2H             5.352-11
 C2H2,acetylene  1.2736-8
 C2H2,vinylidene 3.263-11
 CH2CO,ketene    1.0900-8
 O(CH)2O         5.318-12
 HO(CO)2OH       6.085-15
 C2H3,vinyl      1.304-11
 CH3CO,acetyl    1.946-11
 C2H4            5.150-11
 C2H4O,ethylen-o 2.117-15
 CH3CHO,ethanal  3.008-12
 CH3COOH         1.228-13
 OHCH2COOH       8.679-16
 C2H5            9.221-14
 C2H6            3.745-14
 C2H5OH          4.218-16
 C2O             1.3242-9
 *C3             1.263-15
 C3H3,2-propynl  4.269-14
 C3H4,allene     2.214-15
 C3H4,propyne    4.756-15
 C3O2            3.223-11
 C4H2,butadiyne  1.477-16
 *H              1.2487-2
 HCO             1.8093-5
 HCCO            7.130-10
 HO2             1.2720-8
 *H2             4.5505-1
 HCHO,formaldehy 3.2350-6
 HCOOH           6.8480-7
 H2O             1.0579-1
 H2O2            1.2395-8
 *O              1.5197-5
 *OH             9.7631-4
 *O2             1.4050-6
 O3              1.185-14

  * THERMODYNAMIC PROPERTIES FITTED TO 20000.K


                     DETONATION PROPERTIES OF AN IDEAL REACTING GAS
 CASE =                

             REACTANT                       MOLES         ENERGY      TEMP
                                                         KJ/KG-MOL      K
 FUEL        C3H8                         1.0000000   -104543.521    300.000
 OXIDANT     O2                           5.0000000        54.358    300.000

 O/F=    1.34383  %FUEL= 42.665202  R,EQ.RATIO= 2.700000  PHI,EQ.RATIO= 2.700000

 UNBURNED GAS

 P1, BAR           1.0000
 T1, K             300.00
 H1, KJ/KG       -1010.55
 M1, (1/n)         36.241
 GAMMA1            1.2265
 SON VEL1,M/SEC     290.6

 BURNED GAS

 P, BAR            40.984
 T, K             2791.41
 RHO, KG/CU M    2.5954 0
 H, KJ/KG         1135.72
 U, KJ/KG         -443.36
 G, KJ/KG        -39836.0
 S, KJ/(KG)(K)    14.6778

 M, (1/n)          14.698
 (dLV/dLP)t      -1.00228
 (dLV/dLT)p        1.0453
 Cp, KJ/(KG)(K)    3.1502
 GAMMAs            1.2406
 SON VEL,M/SEC     1399.6

 DETONATION PARAMETERS

 P/P1              40.984
 T/T1               9.305
 M/M1              0.4056
 RHO/RHO1          1.7864
 DET MACH NUMBER   8.6053
 DET VEL,M/SEC     2500.3

 MOLE FRACTIONS

 *C              1.718-10
 *CH             4.924-10
 CH2             1.2109-8
 CH3             3.3130-7
 CH2OH           2.3792-9
 CH3O            4.873-10
 CH4             1.1272-6
 CH3OH           1.6704-9
 CH3OOH          4.314-16
 *CO             4.1549-1
 *CO2            1.1125-2
 COOH            4.5289-7
 *C2             9.174-14
 C2H             4.853-11
 C2H2,acetylene  2.1389-8
 C2H2,vinylidene 4.015-11
 CH2CO,ketene    1.5430-8
 O(CH)2O         5.045-12
 HO(CO)2OH       3.710-15
 C2H3,vinyl      1.985-11
 CH3CO,acetyl    2.569-11
 C2H4            1.225-10
 C2H4O,ethylen-o 3.051-15
 CH3CHO,ethanal  5.370-12
 CH3COOH         1.745-13
 OHCH2COOH       7.953-16
 C2H5            1.974-13
 C2H6            1.159-13
 C2H5OH          8.646-16
 C2O             9.910-10
 *C3             1.126-15
 C3H3,1-propynl  1.136-16
 C3H3,2-propynl  9.375-14
 C3H4,allene     6.309-15
 C3H4,propyne    1.374-14
 C3H4,cyclo-     1.171-16
 C3H5,allyl      1.696-16
 C3O2            3.751-11
 C4H2,butadiyne  3.977-16
 *H              8.5674-3
 HCO             1.4008-5
 HCCO            6.654-10
 HO2             3.3572-9
 *H2             4.7585-1
 HCHO,formaldehy 3.3135-6
 HCOOH           5.6120-7
 H2O             8.8460-2
 H2O2            4.3135-9
 *O              5.0061-6
 *OH             4.8422-4
 *O2             3.7319-7
 O3              1.191-15

  * THERMODYNAMIC PROPERTIES FITTED TO 20000.K


                     DETONATION PROPERTIES OF AN IDEAL REACTING GAS
 CASE =                

             REACTANT                       MOLES         ENERGY      TEMP
                                                         KJ/KG-MOL      K
 FUEL        C3H8                         1.0000000   -104543.521    300.000
 OXIDANT     O2                           5.0000000        54.358    300.000

 O/F=    1.29584  %FUEL= 43.557109  R,EQ.RATIO= 2.800000  PHI,EQ.RATIO= 2.800000

 UNBURNED GAS

 P1, BAR           1.0000
 T1, K             300.00
 H1, KJ/KG       -1031.71
 M1, (1/n)         36.341
 GAMMA1            1.2243
 SON VEL1,M/SEC     289.9

 BURNED GAS

 P, BAR            39.843
 T, K             2667.25
 RHO, KG/CU M    2.5908 0
 H, KJ/KG         1050.96
 U, KJ/KG         -486.92
 G, KJ/KG        -38249.5
 S, KJ/(KG)(K)    14.7345

 M, (1/n)          14.420
 (dLV/dLP)t      -1.00147
 (dLV/dLT)p        1.0303
 Cp, KJ/(KG)(K)    3.0124
 GAMMAs            1.2527
 SON VEL,M/SEC     1388.0

 DETONATION PARAMETERS

 P/P1              39.843
 T/T1               8.891
 M/M1              0.3968
 RHO/RHO1          1.7782
 DET MACH NUMBER   8.5143
 DET VEL,M/SEC     2468.1

 MOLE FRACTIONS

 *C              6.813-11
 *CH             2.516-10
 CH2             9.5358-9
 CH3             4.2897-7
 CH2OH           2.0302-9
 CH3O            3.786-10
 CH4             2.2431-6
 CH3OH           2.0713-9
 CH3OOH          2.178-16
 *CO             4.1815-1
 *CO2            9.1642-3
 COOH            2.6238-7
 *C2             4.775-14
 C2H             4.270-11
 C2H2,acetylene  3.7317-8
 C2H2,vinylidene 4.938-11
 CH2CO,ketene    2.2343-8
 O(CH)2O         4.694-12
 HO(CO)2OH       2.132-15
 C2H3,vinyl      3.081-11
 CH3CO,acetyl    3.424-11
 C2H4            3.123-10
 C2H4O,ethylen-o 4.465-15
 CH3CHO,ethanal  9.977-12
 CH3COOH         2.530-13
 OHCH2COOH       7.100-16
 C2H5            4.444-13
 C2H6            3.923-13
 C2H5OH          1.856-15
 C2O             7.111-10
 *C3             9.680-16
 C3H3,1-propynl  2.126-16
 C3H3,2-propynl  2.181-13
 C3H4,allene     1.955-14
 C3H4,propyne    4.320-14
 C3H4,cyclo-     3.056-16
 C3H5,allyl      5.515-16
 C3H6,propylene  3.973-16
 C3O2            4.408-11
 C4H2,butadiyne  1.161-15
 *H              5.5961-3
 HCO             1.0443-5
 HCCO            6.076-10
 HO2             7.609-10
 *H2             4.9484-1
 HCHO,formaldehy 3.3619-6
 HCOOH           4.4651-7
 H2O             7.2012-2
 H2O2            1.3245-9
 *O              1.4544-6
 *OH             2.2094-4
 *O2             8.5643-8

  * THERMODYNAMIC PROPERTIES FITTED TO 20000.K


                     DETONATION PROPERTIES OF AN IDEAL REACTING GAS
 CASE =                

             REACTANT                       MOLES         ENERGY      TEMP
                                                         KJ/KG-MOL      K
 FUEL        C3H8                         1.0000000   -104543.521    300.000
 OXIDANT     O2                           5.0000000        54.358    300.000

 O/F=    1.25115  %FUEL= 44.421691  R,EQ.RATIO= 2.900000  PHI,EQ.RATIO= 2.900000

 UNBURNED GAS

 P1, BAR           1.0000
 T1, K             300.00
 H1, KJ/KG       -1052.22
 M1, (1/n)         36.439
 GAMMA1            1.2221
 SON VEL1,M/SEC     289.2

 BURNED GAS

 P, BAR            38.600
 T, K             2541.13
 RHO, KG/CU M    2.5862 0
 H, KJ/KG          961.61
 U, KJ/KG         -530.93
 G, KJ/KG        -36598.0
 S, KJ/(KG)(K)    14.7807

 M, (1/n)          14.156
 (dLV/dLP)t      -1.00092
 (dLV/dLT)p        1.0194
 Cp, KJ/(KG)(K)    2.9052
 GAMMAs            1.2645
 SON VEL,M/SEC     1373.8

 DETONATION PARAMETERS

 P/P1              38.600
 T/T1               8.470
 M/M1              0.3885
 RHO/RHO1          1.7703
 DET MACH NUMBER   8.4086
 DET VEL,M/SEC     2432.1

 MOLE FRACTIONS

 *C              2.435-11
 *CH             1.188-10
 CH2             7.2570-9
 CH3             5.6628-7
 CH2OH           1.6756-9
 CH3O            2.821-10
 CH4             4.7814-6
 CH3OH           2.5868-9
 *CO             4.2045-1
 *CO2            7.3516-3
 COOH            1.4145-7
 *C2             2.317-14
 C2H             3.710-11
 C2H2,acetylene  6.9340-8
 C2H2,vinylidene 6.200-11
 CH2CO,ketene    3.3578-8
 O(CH)2O         4.294-12
 HO(CO)2OH       1.133-15
 C2H3,vinyl      4.999-11
 CH3CO,acetyl    4.678-11
 C2H4            8.779-10
 C2H4O,ethylen-o 6.743-15
 CH3CHO,ethanal  1.965-11
 CH3COOH         3.767-13
 OHCH2COOH       6.142-16
 C2H5            1.083-12
 C2H6            1.502-12
 C2H5OH          4.260-15
 C2O             4.927-10
 *C3             8.239-16
 C3H3,1-propynl  4.265-16
 C3H3,2-propynl  5.578-13
 C3H4,allene     6.861-14
 C3H4,propyne    1.542-13
 C3H4,cyclo-     8.864-16
 C3H5,allyl      2.036-15
 C3H6,propylene  2.064-15
 C3O2            5.297-11
 C4H2,butadiyne  3.858-15
 *H              3.4660-3
 HCO             7.4791-6
 HCCO            5.480-10
 HO2             1.435-10
 *H2             5.1214-1
 HCHO,formaldehy 3.3841-6
 HCOOH           3.4180-7
 H2O             5.6488-2
 H2O2            3.489-10
 *O              3.6495-7
 *OH             9.1246-5
 *O2             1.6451-8

  * THERMODYNAMIC PROPERTIES FITTED TO 20000.K


                     DETONATION PROPERTIES OF AN IDEAL REACTING GAS
 CASE =                

             REACTANT                       MOLES         ENERGY      TEMP
                                                         KJ/KG-MOL      K
 FUEL        C3H8                         1.0000000   -104543.521    300.000
 OXIDANT     O2                           5.0000000        54.358    300.000

 O/F=    1.20945  %FUEL= 45.260186  R,EQ.RATIO= 3.000000  PHI,EQ.RATIO= 3.000000

 UNBURNED GAS

 P1, BAR           1.0000
 T1, K             300.00
 H1, KJ/KG       -1072.12
 M1, (1/n)         36.535
 GAMMA1            1.2200
 SON VEL1,M/SEC     288.6

 BURNED GAS

 P, BAR            37.274
 T, K             2414.16
 RHO, KG/CU M    2.5820 0
 H, KJ/KG          868.60
 U, KJ/KG         -575.03
 G, KJ/KG        -34900.3
 S, KJ/(KG)(K)    14.8163

 M, (1/n)          13.904
 (dLV/dLP)t      -1.00057
 (dLV/dLT)p        1.0120
 Cp, KJ/(KG)(K)    2.8255
 GAMMAs            1.2758
 SON VEL,M/SEC     1357.1

 DETONATION PARAMETERS

 P/P1              37.274
 T/T1               8.047
 M/M1              0.3806
 RHO/RHO1          1.7628
 DET MACH NUMBER   8.2890
 DET VEL,M/SEC     2392.3

 MOLE FRACTIONS

 *C              7.915-12
 *CH             5.243-11
 CH2             5.4228-9
 CH3             7.7849-7
 CH2OH           1.3380-9
 CH3O            2.015-10
 CH4             1.1209-5
 CH3OH           3.2683-9
 *CO             4.2248-1
 *CO2            5.6394-3
 COOH            6.9473-8
 *C2             1.080-14
 C2H             3.297-11
 C2H2,acetylene  1.4307-7
 C2H2,vinylidene 8.254-11
 CH2CO,ketene    5.3587-8
 O(CH)2O         3.868-12
 HO(CO)2OH       5.367-16
 C2H3,vinyl      8.831-11
 CH3CO,acetyl    6.698-11
 C2H4            2.8521-9
 C2H4O,ethylen-o 1.077-14
 CH3CHO,ethanal  4.210-11
 CH3COOH         5.805-13
 OHCH2COOH       5.080-16
 C2H5            2.993-12
 C2H6            6.841-12
 C2H5OH          1.076-14
 CH3OCH3         1.373-16
 C2O             3.346-10
 *C3             7.307-16
 C3H3,1-propynl  9.746-16
 C3H3,2-propynl  1.671-12
 C3H4,allene     2.916-13
 C3H4,propyne    6.675-13
 C3H4,cyclo-     3.046-15
 C3H5,allyl      9.131-15
 C3H6,propylene  1.349-14
 C3O2            6.648-11
 C4H2,butadiyne  1.586-14
 *H              2.0279-3
 HCO             5.1360-6
 HCCO            4.972-10
 HO2             2.148-11
 *H2             5.2789-1
 HCHO,formaldehy 3.3846-6
 HCOOH           2.4740-7
 H2O             4.1911-2
 H2O2            7.543-11
 *O              7.6846-8
 *OH             3.3285-5
 *O2             2.5202-9

  * THERMODYNAMIC PROPERTIES FITTED TO 20000.K


                     DETONATION PROPERTIES OF AN IDEAL REACTING GAS
 CASE =                

             REACTANT                       MOLES         ENERGY      TEMP
                                                         KJ/KG-MOL      K
 FUEL        C3H8                         1.0000000   -104543.521    300.000
 OXIDANT     O2                           5.0000000        54.358    300.000

 O/F=    1.17043  %FUEL= 46.073756  R,EQ.RATIO= 3.100000  PHI,EQ.RATIO= 3.100000

 UNBURNED GAS

 P1, BAR           1.0000
 T1, K             300.00
 H1, KJ/KG       -1091.42
 M1, (1/n)         36.628
 GAMMA1            1.2181
 SON VEL1,M/SEC     288.0

 BURNED GAS

 P, BAR            35.884
 T, K             2287.49
 RHO, KG/CU M    2.5783 0
 H, KJ/KG          772.85
 U, KJ/KG         -618.92
 G, KJ/KG        -33175.1
 S, KJ/(KG)(K)    14.8407

 M, (1/n)          13.666
 (dLV/dLP)t      -1.00041
 (dLV/dLT)p        1.0075
 Cp, KJ/(KG)(K)    2.7700
 GAMMAs            1.2862
 SON VEL,M/SEC     1337.9

 DETONATION PARAMETERS

 P/P1              35.884
 T/T1               7.625
 M/M1              0.3731
 RHO/RHO1          1.7558
 DET MACH NUMBER   8.1566
 DET VEL,M/SEC     2349.2

 MOLE FRACTIONS

 *C              2.409-12
 *CH             2.234-11
 CH2             4.1253-9
 CH3             1.1614-6
 CH2OH           1.0336-9
 CH3O            1.380-10
 CH4             3.0269-5
 CH3OH           4.1953-9
 *CO             4.2434-1
 *CO2            3.9801-3
 COOH            2.9826-8
 *C2             5.179-15
 C2H             3.230-11
 C2H2,acetylene  3.5582-7
 C2H2,vinylidene 1.261-10
 CH2CO,ketene    9.4806-8
 O(CH)2O         3.437-12
 HO(CO)2OH       2.100-16
 C2H3,vinyl      1.843-10
 CH3CO,acetyl    1.050-10
 C2H4            1.1674-8
 C2H4O,ethylen-o 1.902-14
 CH3CHO,ethanal  1.028-10
 CH3COOH         9.327-13
 OHCH2COOH       3.881-16
 C2H5            1.021-11
 C2H6            4.055-11
 C2H5OH          3.141-14
 CH3OCH3         3.499-16
 C2O             2.309-10
 *C3             7.553-16
 C3H3,1-propynl  2.864-15
 C3H3,2-propynl  6.631-12
 C3H4,allene     1.703-12
 C3H4,propyne    3.978-12
 C3H4,cyclo-     1.406-14
 C3H5,allyl      5.653-14
 C3H6,propylene  1.264-13
 C3H6,cyclo-     5.956-16
 C3H6O,acetone   3.605-16
 C3H6O,propanal  3.179-16
 C3H8            1.351-16
 C3O2            9.083-11
 C4H2,butadiyne  9.493-14
 C4H6,butadiene  1.144-16
 *H              1.1165-3
 HCO             3.3745-6
 HCCO            4.712-10
 HO2             2.334-12
 *H2             5.4223-1
 HCHO,formaldehy 3.3680-6
 HCOOH           1.6308-7
 H2O             2.8284-2
 H2O2            1.229-11
 *O              1.2928-8
 *OH             1.0255-5
 *O2             2.818-10

  * THERMODYNAMIC PROPERTIES FITTED TO 20000.K


                     DETONATION PROPERTIES OF AN IDEAL REACTING GAS
 CASE =                

             REACTANT                       MOLES         ENERGY      TEMP
                                                         KJ/KG-MOL      K
 FUEL        C3H8                         1.0000000   -104543.521    300.000
 OXIDANT     O2                           5.0000000        54.358    300.000

 O/F=    1.13386  %FUEL= 46.863498  R,EQ.RATIO= 3.200000  PHI,EQ.RATIO= 3.200000

 UNBURNED GAS

 P1, BAR           1.0000
 T1, K             300.00
 H1, KJ/KG       -1110.15
 M1, (1/n)         36.720
 GAMMA1            1.2162
 SON VEL1,M/SEC     287.4

 BURNED GAS

 P, BAR            34.447
 T, K             2162.33
 RHO, KG/CU M    2.5753 0
 H, KJ/KG          675.27
 U, KJ/KG         -662.33
 G, KJ/KG        -31441.6
 S, KJ/(KG)(K)    14.8529

 M, (1/n)          13.441
 (dLV/dLP)t      -1.00058
 (dLV/dLT)p        1.0062
 Cp, KJ/(KG)(K)    2.7382
 GAMMAs            1.2956
 SON VEL,M/SEC     1316.4

 DETONATION PARAMETERS

 P/P1              34.447
 T/T1               7.208
 M/M1              0.3660
 RHO/RHO1          1.7494
 DET MACH NUMBER   8.0125
 DET VEL,M/SEC     2303.0

 MOLE FRACTIONS

 *C              7.560-13
 *CH             1.014-11
 CH2             3.5392-9
 CH3             2.0914-6
 CH2OH           7.725-10
 CH3O            9.054-11
 CH4             1.0515-4
 CH3OH           5.4896-9
 *CO             4.2610-1
 *CO2            2.3288-3
 COOH            1.0063-8
 *C2             3.131-15
 C2H             4.293-11
 C2H2,acetylene  1.3194-6
 C2H2,vinylidene 2.723-10
 CH2CO,ketene    2.0715-7
 O(CH)2O         3.020-12
 C2H3,vinyl      5.613-10
 CH3CO,acetyl    2.006-10
 C2H4            7.4732-8
 C2H4O,ethylen-o 4.142-14
 CH3CHO,ethanal  3.199-10
 CH3COOH         1.572-12
 OHCH2COOH       2.478-16
 C2H5            5.336-11
 C2H6            3.896-10
 C2H5OH          1.186-13
 CH3OCH3         1.138-15
 C2O             1.793-10
 *C3             1.240-15
 C3H3,1-propynl  1.487-14
 C3H3,2-propynl  4.797-11
 C3H4,allene     1.886-11
 C3H4,propyne    4.504-11
 C3H4,cyclo-     1.201-13
 C3H5,allyl      6.673-13
 C3H6,propylene  2.350-12
 C3H6,cyclo-     9.894-15
 C3H6O,acetone   3.467-15
 C3H6O,propanal  2.721-15
 C3H7,n-propyl   4.971-16
 C3H7,i-propyl   3.818-16
 C3H8            3.616-15
 C3O2            1.504-10
 C4H2,butadiyne  1.266-12
 C4H6,butadiene  4.070-15
 C4H6,1butyne    4.561-16
 C4H6,2butyne    3.173-16
 *H              5.7672-4
 HCO             2.1179-6
 HCCO            5.180-10
 HO2             1.482-13
 *H2             5.5525-1
 HCHO,formaldehy 3.3383-6
 HCOOH           8.8280-8
 H2O             1.5635-2
 H2O2            1.217-12
 *O              1.5527-9
 *OH             2.3923-6
 *O2             1.850-11

  * THERMODYNAMIC PROPERTIES FITTED TO 20000.K


                     DETONATION PROPERTIES OF AN IDEAL REACTING GAS
 CASE =                

             REACTANT                       MOLES         ENERGY      TEMP
                                                         KJ/KG-MOL      K
 FUEL        C3H8                         1.0000000   -104543.521    300.000
 OXIDANT     O2                           5.0000000        54.358    300.000

 O/F=    1.09950  %FUEL= 47.630442  R,EQ.RATIO= 3.300000  PHI,EQ.RATIO= 3.300000

 UNBURNED GAS

 P1, BAR           1.0000
 T1, K             300.00
 H1, KJ/KG       -1128.35
 M1, (1/n)         36.808
 GAMMA1            1.2143
 SON VEL1,M/SEC     286.9

 BURNED GAS

 P, BAR            33.024
 T, K             2043.40
 RHO, KG/CU M    2.5743 0
 H, KJ/KG          578.73
 U, KJ/KG         -704.11
 G, KJ/KG        -29766.3
 S, KJ/(KG)(K)    14.8502

 M, (1/n)          13.244
 (dLV/dLP)t      -1.00270
 (dLV/dLT)p        1.0187
 Cp, KJ/(KG)(K)    2.7734
 GAMMAs            1.3025
 SON VEL,M/SEC     1292.6

 DETONATION PARAMETERS

 P/P1              33.024
 T/T1               6.811
 M/M1              0.3598
 RHO/RHO1          1.7445
 DET MACH NUMBER   7.8609
 DET VEL,M/SEC     2255.0

 MOLE FRACTIONS

 *C              4.128-13
 *CH             8.189-12
 CH2             5.6060-9
 CH3             7.2797-6
 CH2OH           5.634-10
 CH3O            5.767-11
 CH4             7.3818-4
 CH3OH           7.2643-9
 *CO             4.2767-1
 *CO2            7.0437-4
 COOH            1.6907-9
 *C2             6.436-15
 C2H             2.040-10
 C2H2,acetylene  1.8647-5
 C2H2,vinylidene 2.1611-9
 CH2CO,ketene    8.9066-7
 O(CH)2O         2.635-12
 C2H3,vinyl      6.4166-9
 CH3CO,acetyl    7.475-10
 C2H4            1.8820-6
 C2H4O,ethylen-o 1.773-13
 CH3CHO,ethanal  1.9984-9
 CH3COOH         2.741-12
 C2H5            1.0809-9
 C2H6            1.5073-8
 C2H5OH          9.080-13
 CH3OCH3         7.433-15
 C2O             2.574-10
 *C3             1.382-14
 C3H3,1-propynl  5.627-13
 C3H3,2-propynl  2.5859-9
 C3H4,allene     1.5978-9
 C3H4,propyne    3.9068-9
 C3H4,cyclo-     7.723-12
 C3H5,allyl      6.051-11
 C3H6,propylene  3.449-10
 C3H6,cyclo-     1.289-12
 C3H6O,acetone   1.348-13
 C3H6O,propanal  9.351-14
 C3H7,n-propyl   5.571-14
 C3H7,i-propyl   4.459-14
 C3H8            7.798-13
 C3O2            4.848-10
 C4H2,butadiyne  2.460-10
 C4H4,1,3-cyclo- 3.196-15
 C4H6,butadiene  2.255-12
 C4H6,1butyne    2.202-13
 C4H6,2butyne    1.657-13
 C4H6,cyclo-     5.225-15
 C4H8,1-butene   1.648-14
 C4H8,cis2-buten 6.425-15
 C4H8,tr2-butene 7.226-15
 C4H8,isobutene  7.830-15
 C5H6,1,3cyclo-  9.884-15
 C6H2            3.417-15
 C6H6            7.526-15
 *H              2.8499-4
 HCO             1.2872-6
 HCCO            1.0736-9
 HO2             2.245-15
 *H2             5.6615-1
 HCHO,formaldehy 3.2968-6
 HCOOH           2.4535-8
 H2O             4.4178-3
 H2O2            2.952-14
 *O              8.696-11
 *OH             2.7058-7
 *O2             2.909-13

  * THERMODYNAMIC PROPERTIES FITTED TO 20000.K


                     DETONATION PROPERTIES OF AN IDEAL REACTING GAS
 CASE =                

             REACTANT                       MOLES         ENERGY      TEMP
                                                         KJ/KG-MOL      K
 FUEL        C3H8                         1.0000000   -104543.521    300.000
 OXIDANT     O2                           5.0000000        54.358    300.000

 O/F=    1.06716  %FUEL= 48.375561  R,EQ.RATIO= 3.400000  PHI,EQ.RATIO= 3.400000

 UNBURNED GAS

 P1, BAR           1.0000
 T1, K             300.00
 H1, KJ/KG       -1146.03
 M1, (1/n)         36.895
 GAMMA1            1.2126
 SON VEL1,M/SEC     286.3

 BURNED GAS

 P, BAR            32.141
 T, K             1974.90
 RHO, KG/CU M    2.5859 0
 H, KJ/KG          508.77
 U, KJ/KG         -734.18
 G, KJ/KG        -28778.2
 S, KJ/(KG)(K)    14.8296

 M, (1/n)          13.211
 MW, MOL WT        13.158
 (dLV/dLP)t      -1.00595
 (dLV/dLT)p        1.0358
 Cp, KJ/(KG)(K)    2.8894
 GAMMAs            1.2949
 SON VEL,M/SEC     1268.7

 DETONATION PARAMETERS

 P/P1              32.141
 T/T1               6.583
 M/M1              0.3581
 RHO/RHO1          1.7482
 DET MACH NUMBER   7.7462
 DET VEL,M/SEC     2217.9

 MOLE FRACTIONS

 *C              5.451-13
 *CH             1.378-11
 CH2             1.4359-8
 CH3             3.0513-5
 CH2OH           4.502-10
 CH3O            4.238-11
 CH4             4.8051-3
 CH3OH           8.4241-9
 *CO             4.2322-1
 *CO2            1.6732-4
 COOH            2.760-10
 *C2             3.801-14
 C2H             2.0379-9
 C2H2,acetylene  3.6885-4
 C2H2,vinylidene 2.9675-8
 CH2CO,ketene    4.2498-6
 O(CH)2O         2.351-12
 C2H3,vinyl      1.1052-7
 CH3CO,acetyl    3.2482-9
 C2H4            5.3153-5
 C2H4O,ethylen-o 8.376-13
 CH3CHO,ethanal  1.1975-8
 CH3COOH         3.757-12
 C2H5            2.6501-8
 C2H6            5.5385-7
 C2H5OH          6.139-12
 CH3OCH3         4.547-14
 C2O             6.200-10
 *C3             4.592-13
 C3H3,1-propynl  4.002-11
 C3H3,2-propynl  2.2994-7
 C3H4,allene     1.8833-7
 C3H4,propyne    4.6729-7
 C3H4,cyclo-     7.649-10
 C3H5,allyl      7.4170-9
 C3H6,propylene  5.7029-8
 C3H6,cyclo-     1.979-10
 C3H6O,propylox  6.917-16
 C3H6O,acetone   4.931-12
 C3H6O,propanal  3.164-12
 C3H7,n-propyl   7.740-12
 C3H7,i-propyl   6.356-12
 C3H8            1.631-10
 C3H8O,1propanol 1.588-15
 C3H8O,2propanol 1.500-15
 C3O2            1.9306-9
 C4H2,butadiyne  9.5734-8
 C4H4,1,3-cyclo- 1.415-12
 C4H6,butadiene  1.6789-9
 C4H6,1butyne    1.498-10
 C4H6,2butyne    1.184-10
 C4H6,cyclo-     3.618-12
 C4H8,1-butene   1.553-11
 C4H8,cis2-buten 6.199-12
 C4H8,tr2-butene 6.967-12
 C4H8,isobutene  7.636-12
 C4H8,cyclo-     7.743-15
 C4H9,n-butyl    4.871-15
 C4H9,i-butyl    2.667-15
 C4H9,s-butyl    3.186-15
 C4H9,t-butyl    6.933-16
 C4H10,n-butane  4.974-14
 C4H10,isobutane 1.597-14
 C5H6,1,3cyclo-  3.980-11
 C5H8,cyclo-     8.698-14
 C5H10,1-pentene 3.464-15
 C6H2            2.621-11
 C6H5,phenyl     4.964-13
 C6H5O,phenoxy   5.512-16
 C6H6            1.889-10
 C6H5OH,phenol   1.075-14
 C7H7,benzyl     5.457-14
 C7H8            2.899-13
 C8H8,styrene    1.480-14
 C10H8,naphthale 6.730-16
 *H              1.8141-4
 HCO             9.2465-7
 HCCO            3.2460-9
 *H2             5.6618-1
 HCHO,formaldehy 3.2044-6
 HCOOH           5.4846-9
 H2O             1.0047-3
 H2O2            7.297-16
 *O              7.194-12
 *OH             3.4695-8
 *O2             5.517-15
 C(gr)           3.9749-3

  * THERMODYNAMIC PROPERTIES FITTED TO 20000.K


                     DETONATION PROPERTIES OF AN IDEAL REACTING GAS
 CASE =                

             REACTANT                       MOLES         ENERGY      TEMP
                                                         KJ/KG-MOL      K
 FUEL        C3H8                         1.0000000   -104543.521    300.000
 OXIDANT     O2                           5.0000000        54.358    300.000

 O/F=    1.03667  %FUEL= 49.099775  R,EQ.RATIO= 3.500000  PHI,EQ.RATIO= 3.500000

 UNBURNED GAS

 P1, BAR           1.0000
 T1, K             300.00
 H1, KJ/KG       -1163.21
 M1, (1/n)         36.980
 GAMMA1            1.2109
 SON VEL1,M/SEC     285.8

 BURNED GAS

 P, BAR            31.418
 T, K             1923.00
 RHO, KG/CU M    2.5916 0
 H, KJ/KG          449.51
 U, KJ/KG         -762.80
 G, KJ/KG        -28020.8
 S, KJ/(KG)(K)    14.8051

 M, (1/n)          13.189
 MW, MOL WT        12.979
 (dLV/dLP)t      -1.00687
 (dLV/dLT)p        1.0424
 Cp, KJ/(KG)(K)    2.9249
 GAMMAs            1.2942
 SON VEL,M/SEC     1252.6

 DETONATION PARAMETERS

 P/P1              31.418
 T/T1               6.410
 M/M1              0.3566
 RHO/RHO1          1.7481
 DET MACH NUMBER   7.6616
 DET VEL,M/SEC     2189.6

 MOLE FRACTIONS

 *C              1.696-13
 *CH             5.227-12
 CH2             7.6670-9
 CH3             2.4306-5
 CH2OH           3.722-10
 CH3O            3.276-11
 CH4             5.4791-3
 CH3OH           9.4331-9
 *CO             4.1129-1
 *CO2            2.0323-4
 COOH            2.487-10
 *C2             9.906-15
 C2H             8.138-10
 C2H2,acetylene  2.5620-4
 C2H2,vinylidene 1.5355-8
 CH2CO,ketene    3.7020-6
 O(CH)2O         2.093-12
 C2H3,vinyl      6.8887-8
 CH3CO,acetyl    2.6343-9
 C2H4            4.9519-5
 C2H4O,ethylen-o 7.293-13
 CH3CHO,ethanal  1.2620-8
 CH3COOH         4.761-12
 C2H5            2.2107-8
 C2H6            6.4227-7
 C2H5OH          7.180-12
 CH3OCH3         4.906-14
 C2O             3.094-10
 *C3             1.205-13
 C3H3,1-propynl  1.960-11
 C3H3,2-propynl  1.3479-7
 C3H4,allene     1.3902-7
 C3H4,propyne    3.4904-7
 C3H4,cyclo-     4.908-10
 C3H5,allyl      5.6724-9
 C3H6,propylene  5.5682-8
 C3H6,cyclo-     1.821-10
 C3H6O,propylox  6.382-16
 C3H6O,acetone   5.631-12
 C3H6O,propanal  3.395-12
 C3H7,n-propyl   6.591-12
 C3H7,i-propyl   5.526-12
 C3H8            1.938-10
 C3H8O,1propanol 1.911-15
 C3H8O,2propanol 1.842-15
 C3O2            1.4276-9
 C4H2,butadiyne  4.6054-8
 C4H4,1,3-cyclo- 7.609-13
 C4H6,butadiene  1.3829-9
 C4H6,1butyne    1.146-10
 C4H6,2butyne    9.425-11
 C4H6,cyclo-     2.807-12
 C4H8,1-butene   1.555-11
 C4H8,cis2-buten 6.325-12
 C4H8,tr2-butene 7.106-12
 C4H8,isobutene  7.861-12
 C4H8,cyclo-     7.389-15
 C4H9,n-butyl    4.335-15
 C4H9,i-butyl    2.405-15
 C4H9,s-butyl    2.845-15
 C4H9,t-butyl    6.466-16
 C4H10,n-butane  6.044-14
 C4H10,isobutane 1.967-14
 C5H6,1,3cyclo-  3.198-11
 C5H8,cyclo-     8.208-14
 C5H10,1-pentene 3.573-15
 C6H2            8.741-12
 C6H5,phenyl     2.882-13
 C6H5O,phenoxy   4.031-16
 C6H6            1.661-10
 C6H5OH,phenol   9.927-15
 C7H7,benzyl     3.824-14
 C7H8            2.677-13
 C8H8,styrene    1.154-14
 C10H8,naphthale 5.224-16
 *H              1.2557-4
 HCO             6.9667-7
 HCCO            1.9514-9
 *H2             5.6544-1
 HCHO,formaldehy 3.0912-6
 HCOOH           6.3903-9
 H2O             1.1999-3
 H2O2            5.755-16
 *O              3.783-12
 *OH             2.6038-8
 *O2             3.491-15
 C(gr)           1.5926-2

  * THERMODYNAMIC PROPERTIES FITTED TO 20000.K


                     DETONATION PROPERTIES OF AN IDEAL REACTING GAS
 CASE =                

             REACTANT                       MOLES         ENERGY      TEMP
                                                         KJ/KG-MOL      K
 FUEL        C3H8                         1.0000000   -104543.521    300.000
 OXIDANT     O2                           5.0000000        54.358    300.000

 O/F=    1.00787  %FUEL= 49.803951  R,EQ.RATIO= 3.600000  PHI,EQ.RATIO= 3.600000

 UNBURNED GAS

 P1, BAR           1.0000
 T1, K             300.00
 H1, KJ/KG       -1179.92
 M1, (1/n)         37.063
 GAMMA1            1.2093
 SON VEL1,M/SEC     285.3

 BURNED GAS

 P, BAR            30.737
 T, K             1874.13
 RHO, KG/CU M    2.5977 0
 H, KJ/KG          393.09
 U, KJ/KG         -790.12
 G, KJ/KG        -27306.1
 S, KJ/(KG)(K)    14.7798

 M, (1/n)          13.170
 MW, MOL WT        12.813
 (dLV/dLP)t      -1.00794
 (dLV/dLT)p        1.0505
 Cp, KJ/(KG)(K)    2.9713
 GAMMAs            1.2929
 SON VEL,M/SEC     1236.8

 DETONATION PARAMETERS

 P/P1              30.737
 T/T1               6.247
 M/M1              0.3553
 RHO/RHO1          1.7483
 DET MACH NUMBER   7.5797
 DET VEL,M/SEC     2162.3

 MOLE FRACTIONS

 *C              5.323-14
 *CH             1.997-12
 CH2             4.1108-9
 CH3             1.9384-5
 CH2OH           3.083-10
 CH3O            2.542-11
 CH4             6.2429-3
 CH3OH           1.0566-8
 *CO             4.0004-1
 *CO2            2.4710-4
 COOH            2.248-10
 *C2             2.606-15
 C2H             3.271-10
 C2H2,acetylene  1.7835-4
 C2H2,vinylidene 7.9779-9
 CH2CO,ketene    3.2310-6
 O(CH)2O         1.870-12
 C2H3,vinyl      4.3063-8
 CH3CO,acetyl    2.1425-9
 C2H4            4.6140-5
 C2H4O,ethylen-o 6.365-13
 CH3CHO,ethanal  1.3311-8
 CH3COOH         6.043-12
 C2H5            1.8461-8
 C2H6            7.4392-7
 C2H5OH          8.400-12
 CH3OCH3         5.299-14
 C2O             1.553-10
 *C3             3.189-14
 C3H3,1-propynl  9.639-12
 C3H3,2-propynl  7.9277-8
 C3H4,allene     1.0282-7
 C3H4,propyne    2.6117-7
 C3H4,cyclo-     3.159-10
 C3H5,allyl      4.3467-9
 C3H6,propylene  5.4369-8
 C3H6,cyclo-     1.677-10
 C3H6O,propylox  5.902-16
 C3H6O,acetone   6.433-12
 C3H6O,propanal  3.646-12
 C3H7,n-propyl   5.619-12
 C3H7,i-propyl   4.808-12
 C3H8            2.301-10
 C3H8O,1propanol 2.301-15
 C3H8O,2propanol 2.261-15
 C3O2            1.0606-9
 C4H2,butadiyne  2.2260-8
 C4H4,1,3-cyclo- 4.108-13
 C4H6,butadiene  1.1418-9
 C4H6,1butyne    8.778-11
 C4H6,2butyne    7.512-11
 C4H6,cyclo-     2.183-12
 C4H8,1-butene   1.557-11
 C4H8,cis2-buten 6.453-12
 C4H8,tr2-butene 7.248-12
 C4H8,isobutene  8.091-12
 C4H8,cyclo-     7.057-15
 C4H9,n-butyl    3.862-15
 C4H9,i-butyl    2.172-15
 C4H9,s-butyl    2.543-15
 C4H9,t-butyl    6.034-16
 C4H10,n-butane  7.337-14
 C4H10,isobutane 2.420-14
 C5H6,1,3cyclo-  2.573-11
 C5H8,cyclo-     7.754-14
 C5H10,1-pentene 3.684-15
 C6H2            2.937-12
 C6H5,phenyl     1.679-13
 C6H5O,phenoxy   2.959-16
 C6H6            1.461-10
 C6H5OH,phenol   9.187-15
 C7H7,benzyl     2.687-14
 C7H8            2.473-13
 C8H8,styrene    9.017-15
 C10H8,naphthale 4.064-16
 *H              8.7170-5
 HCO             5.2643-7
 HCCO            1.1785-9
 *H2             5.6457-1
 HCHO,formaldehy 2.9857-6
 HCOOH           7.4594-9
 H2O             1.4326-3
 H2O2            4.560-16
 *O              2.002-12
 *OH             1.9607-8
 *O2             2.223-15
 C(gr)           2.7120-2

  * THERMODYNAMIC PROPERTIES FITTED TO 20000.K



