
 *******************************************************************************

         NASA-GLENN CHEMICAL EQUILIBRIUM PROGRAM CEA2, MAY 21, 2004
                   BY  BONNIE MCBRIDE AND SANFORD GORDON
      REFS: NASA RP-1311, PART I, 1994 AND NASA RP-1311, PART II, 1996

 *******************************************************************************



 problem    phi,eq.ratio=3.7,3.8,3.9,4,
       det   t,k=300,  p,bar=1,
 react
   fuel=C6H6 moles=1 t,k=300
   oxid=O2 moles=7.5 t,k=300
   oxid=N2 moles=28.2143 t,k=300
 output
      trace=1e-16 siunits short
 end


                     DETONATION PROPERTIES OF AN IDEAL REACTING GAS
 CASE =                

             REACTANT                       MOLES         ENERGY      TEMP
                                                         KJ/KG-MOL      K
 FUEL        C6H6                         1.0000000     83032.119    300.000
 OXIDANT     O2                           7.5000000        54.358    300.000
 OXIDANT     N2                          28.2143000        53.881    300.000

 O/F=    3.56512  %FUEL= 21.905220  R,EQ.RATIO= 3.700000  PHI,EQ.RATIO= 3.700000

 UNBURNED GAS

 P1, BAR           1.0000
 T1, K             300.00
 H1, KJ/KG         234.31
 M1, (1/n)         33.475
 GAMMA1            1.3214
 SON VEL1,M/SEC     313.8

 BURNED GAS

 P, BAR            15.091
 T, K             1884.19
 RHO, KG/CU M    2.3414 0
 H, KJ/KG         1060.23
 U, KJ/KG          415.68
 G, KJ/KG        -16792.1
 S, KJ/(KG)(K)     9.4748

 M, (1/n)          24.306
 MW, MOL WT        21.531
 (dLV/dLP)t      -1.00063
 (dLV/dLT)p        1.0047
 Cp, KJ/(KG)(K)    1.6998
 GAMMAs            1.2539
 SON VEL,M/SEC      899.0

 DETONATION PARAMETERS

 P/P1              15.091
 T/T1               6.281
 M/M1              0.7261
 RHO/RHO1          1.7447
 DET MACH NUMBER   4.9985
 DET VEL,M/SEC     1568.5

 MOLE FRACTIONS

 *C              1.262-13
 *CH             1.874-12
 CH2             1.4824-9
 CH3             2.6533-6
 CH2OH           1.369-11
 CH3O            1.144-12
 CH4             3.2708-4
 CH3OH           1.817-10
 *CN             2.0631-8
 CNN             1.481-16
 *CO             2.4454-1
 *CO2            4.7127-5
 COOH            1.883-11
 *C2             6.411-15
 C2H             3.037-10
 C2H2,acetylene  6.0885-5
 C2H2,vinylidene 2.8962-9
 CH2CO,ketene    3.4392-7
 O(CH)2O         6.478-14
 C2H3,vinyl      6.2038-9
 CH3CN           1.5923-6
 CH3CO,acetyl    9.549-11
 C2H4            2.5218-6
 C2H4O,ethylen-o 1.153-14
 CH3CHO,ethanal  2.318-10
 CH3COOH         3.309-14
 C2H5            4.260-10
 C2H6            6.6115-9
 C2H5OH          2.436-14
 CH3OCH3         1.563-16
 CNC             1.249-13
 OCCN            1.095-10
 C2N2            2.6287-7
 C2O             1.091-10
 *C3             7.837-14
 C3H3,1-propynl  1.460-12
 C3H3,2-propynl  1.1568-8
 C3H4,allene     5.8993-9
 C3H4,propyne    1.4948-8
 C3H4,cyclo-     1.866-11
 C3H5,allyl      1.021-10
 C3H6,propylene  5.009-10
 C3H6,cyclo-     1.564-12
 C3H6O,acetone   1.875-14
 C3H6O,propanal  1.076-14
 C3H7,n-propyl   2.197-14
 C3H7,i-propyl   1.872-14
 C3H8            3.463-13
 CNCOCN          1.045-14
 C3O2            2.243-10
 C4H2,butadiyne  8.2044-9
 C4H4,1,3-cyclo- 2.518-14
 C4H6,butadiene  1.089-11
 C4H6,1butyne    8.509-13
 C4H6,2butyne    7.222-13
 C4H6,cyclo-     2.109-14
 C4H8,1-butene   2.429-14
 C4H8,cis2-buten 1.003-14
 C4H8,tr2-butene 1.126-14
 C4H8,isobutene  1.255-14
 C4N2            3.084-11
 C5H6,1,3cyclo-  2.469-13
 C5H8,cyclo-     1.224-16
 C6H2            1.169-12
 C6H5,phenyl     4.178-15
 C6H6            1.376-12
 C7H7,benzyl     1.094-16
 C7H8            3.923-16
 *H              7.2166-5
 HCN             2.9474-3
 HCO             1.4000-7
 HCCN            1.909-14
 HCCO            3.285-10
 HNC             1.1810-4
 HNCO            6.7801-7
 HNO             1.174-13
 *H2             1.7867-1
 HCHO,formaldehy 3.1112-7
 HCOOH           2.442-10
 H2O             1.4278-4
 *N              2.511-11
 NCO             1.134-10
 *NH             4.013-10
 NH2             2.9498-8
 NH3             2.1679-5
 NH2OH           2.883-15
 *NO             2.005-10
 *N2             4.5888-1
 NCN             3.145-13
 N2H2            1.884-12
 N2H4            8.014-15
 N2O             3.601-14
 N3              4.822-16
 N3H             1.272-14
 *O              1.390-12
 *OH             5.2178-9
 *O2             4.857-16
 C(gr)           1.1416-1

  * THERMODYNAMIC PROPERTIES FITTED TO 20000.K


                     DETONATION PROPERTIES OF AN IDEAL REACTING GAS
 CASE =                

             REACTANT                       MOLES         ENERGY      TEMP
                                                         KJ/KG-MOL      K
 FUEL        C6H6                         1.0000000     83032.119    300.000
 OXIDANT     O2                           7.5000000        54.358    300.000
 OXIDANT     N2                          28.2143000        53.881    300.000

 O/F=    3.47130  %FUEL= 22.364846  R,EQ.RATIO= 3.800000  PHI,EQ.RATIO= 3.800000

 UNBURNED GAS

 P1, BAR           1.0000
 T1, K             300.00
 H1, KJ/KG         239.19
 M1, (1/n)         33.588
 GAMMA1            1.3198
 SON VEL1,M/SEC     313.1

 BURNED GAS

 P, BAR            15.043
 T, K             1872.11
 RHO, KG/CU M    2.3499 0
 H, KJ/KG         1059.41
 U, KJ/KG          419.27
 G, KJ/KG        -16664.0
 S, KJ/(KG)(K)     9.4671

 M, (1/n)          24.316
 MW, MOL WT        21.343
 (dLV/dLP)t      -1.00067
 (dLV/dLT)p        1.0050
 Cp, KJ/(KG)(K)    1.7055
 GAMMAs            1.2528
 SON VEL,M/SEC      895.5

 DETONATION PARAMETERS

 P/P1              15.043
 T/T1               6.240
 M/M1              0.7240
 RHO/RHO1          1.7451
 DET MACH NUMBER   4.9919
 DET VEL,M/SEC     1562.8

 MOLE FRACTIONS

 *C              9.338-14
 *CH             1.473-12
 CH2             1.2829-9
 CH3             2.5654-6
 CH2OH           1.338-11
 CH3O            1.100-12
 CH4             3.4978-4
 CH3OH           1.936-10
 *CN             1.7086-8
 CNN             1.122-16
 *CO             2.4097-1
 *CO2            4.9178-5
 COOH            1.843-11
 *C2             4.537-15
 C2H             2.418-10
 C2H2,acetylene  5.6280-5
 C2H2,vinylidene 2.4864-9
 CH2CO,ketene    3.3689-7
 O(CH)2O         6.390-14
 C2H3,vinyl      5.6408-9
 CH3CN           1.5840-6
 CH3CO,acetyl    9.288-11
 C2H4            2.5633-6
 C2H4O,ethylen-o 1.154-14
 CH3CHO,ethanal  2.433-10
 CH3COOH         3.643-14
 C2H5            4.257-10
 C2H6            7.2531-9
 C2H5OH          2.682-14
 CH3OCH3         1.686-16
 CNC             9.329-14
 OCCN            9.403-11
 C2N2            2.2782-7
 C2O             9.098-11
 *C3             5.555-14
 C3H3,1-propynl  1.250-12
 C3H3,2-propynl  1.0358-8
 C3H4,allene     5.6567-9
 C3H4,propyne    1.4375-8
 C3H4,cyclo-     1.728-11
 C3H5,allyl      9.987-11
 C3H6,propylene  5.263-10
 C3H6,cyclo-     1.619-12
 C3H6O,acetone   2.052-14
 C3H6O,propanal  1.160-14
 C3H7,n-propyl   2.255-14
 C3H7,i-propyl   1.931-14
 C3H8            3.905-13
 CNCOCN          8.767-15
 C3O2            2.067-10
 C4H2,butadiyne  6.9166-9
 C4H4,1,3-cyclo- 2.230-14
 C4H6,butadiene  1.097-11
 C4H6,1butyne    8.410-13
 C4H6,2butyne    7.210-13
 C4H6,cyclo-     2.093-14
 C4H8,1-butene   2.624-14
 C4H8,cis2-buten 1.088-14
 C4H8,tr2-butene 1.222-14
 C4H8,isobutene  1.365-14
 C4N2            2.440-11
 C5H6,1,3cyclo-  2.470-13
 C5H8,cyclo-     1.303-16
 C6H2            8.988-13
 C6H5,phenyl     3.813-15
 C6H6            1.408-12
 C7H7,benzyl     1.070-16
 C7H8            4.153-16
 *H              6.5956-5
 HCN             2.7917-3
 HCO             1.3083-7
 HCCN            1.483-14
 HCCO            2.901-10
 HNC             1.0903-4
 HNCO            6.7276-7
 HNO             1.062-13
 *H2             1.8089-1
 HCHO,formaldehy 3.1265-7
 HCOOH           2.577-10
 H2O             1.5137-4
 *N              2.040-11
 NCO             1.004-10
 *NH             3.460-10
 NH2             2.7569-8
 NH3             2.2569-5
 NH2OH           2.828-15
 *NO             1.804-10
 *N2             4.5227-1
 NCN             2.518-13
 N2H2            1.733-12
 N2H4            7.897-15
 N2O             3.232-14
 N3              3.945-16
 N3H             1.115-14
 *O              1.175-12
 *OH             4.8720-9
 *O2             4.305-16
 C(gr)           1.2226-1

  * THERMODYNAMIC PROPERTIES FITTED TO 20000.K


                     DETONATION PROPERTIES OF AN IDEAL REACTING GAS
 CASE =                

             REACTANT                       MOLES         ENERGY      TEMP
                                                         KJ/KG-MOL      K
 FUEL        C6H6                         1.0000000     83032.119    300.000
 OXIDANT     O2                           7.5000000        54.358    300.000
 OXIDANT     N2                          28.2143000        53.881    300.000

 O/F=    3.38230  %FUEL= 22.819093  R,EQ.RATIO= 3.900000  PHI,EQ.RATIO= 3.900000

 UNBURNED GAS

 P1, BAR           1.0000
 T1, K             300.00
 H1, KJ/KG         244.01
 M1, (1/n)         33.700
 GAMMA1            1.3184
 SON VEL1,M/SEC     312.4

 BURNED GAS

 P, BAR            14.996
 T, K             1860.35
 RHO, KG/CU M    2.3584 0
 H, KJ/KG         1058.67
 U, KJ/KG          422.84
 G, KJ/KG        -16538.9
 S, KJ/(KG)(K)     9.4593

 M, (1/n)          24.327
 MW, MOL WT        21.161
 (dLV/dLP)t      -1.00072
 (dLV/dLT)p        1.0053
 Cp, KJ/(KG)(K)    1.7112
 GAMMAs            1.2518
 SON VEL,M/SEC      892.1

 DETONATION PARAMETERS

 P/P1              14.996
 T/T1               6.201
 M/M1              0.7219
 RHO/RHO1          1.7456
 DET MACH NUMBER   4.9854
 DET VEL,M/SEC     1557.3

 MOLE FRACTIONS

 *C              6.936-14
 *CH             1.161-12
 CH2             1.1118-9
 CH3             2.4801-6
 CH2OH           1.307-11
 CH3O            1.057-12
 CH4             3.7348-4
 CH3OH           2.060-10
 *CN             1.4183-8
 *CO             2.3750-1
 *CO2            5.1296-5
 COOH            1.804-11
 *C2             3.225-15
 C2H             1.930-10
 C2H2,acetylene  5.2053-5
 C2H2,vinylidene 2.1378-9
 CH2CO,ketene    3.2998-7
 O(CH)2O         6.302-14
 C2H3,vinyl      5.1319-9
 CH3CN           1.5749-6
 CH3CO,acetyl    9.032-11
 C2H4            2.6029-6
 C2H4O,ethylen-o 1.154-14
 CH3CHO,ethanal  2.551-10
 CH3COOH         4.004-14
 C2H5            4.250-10
 C2H6            7.9387-9
 C2H5OH          2.945-14
 CH3OCH3         1.815-16
 CNC             6.993-14
 OCCN            8.088-11
 C2N2            1.9780-7
 C2O             7.605-11
 *C3             3.954-14
 C3H3,1-propynl  1.071-12
 C3H3,2-propynl  9.2811-9
 C3H4,allene     5.4227-9
 C3H4,propyne    1.3820-8
 C3H4,cyclo-     1.600-11
 C3H5,allyl      9.760-11
 C3H6,propylene  5.520-10
 C3H6,cyclo-     1.674-12
 C3H6O,acetone   2.240-14
 C3H6O,propanal  1.247-14
 C3H7,n-propyl   2.311-14
 C3H7,i-propyl   1.989-14
 C3H8            4.391-13
 CNCOCN          7.374-15
 C3O2            1.907-10
 C4H2,butadiyne  5.8410-9
 C4H4,1,3-cyclo- 1.976-14
 C4H6,butadiene  1.104-11
 C4H6,1butyne    8.304-13
 C4H6,2butyne    7.189-13
 C4H6,cyclo-     2.074-14
 C4H8,1-butene   2.828-14
 C4H8,cis2-buten 1.178-14
 C4H8,tr2-butene 1.323-14
 C4H8,isobutene  1.481-14
 C4N2            1.937-11
 C5H6,1,3cyclo-  2.469-13
 C5H8,cyclo-     1.384-16
 C6H2            6.932-13
 C6H5,phenyl     3.480-15
 C6H6            1.439-12
 C7H7,benzyl     1.045-16
 C7H8            4.386-16
 *H              6.0338-5
 HCN             2.6455-3
 HCO             1.2235-7
 HCCN            1.155-14
 HCCO            2.566-10
 HNC             1.0073-4
 HNCO            6.6752-7
 HNO             9.625-14
 *H2             1.8305-1
 HCHO,formaldehy 3.1407-7
 HCOOH           2.717-10
 H2O             1.6031-4
 *N              1.662-11
 NCO             8.898-11
 *NH             2.989-10
 NH2             2.5779-8
 NH3             2.3471-5
 NH2OH           2.774-15
 *NO             1.626-10
 *N2             4.4584-1
 NCN             2.022-13
 N2H2            1.596-12
 N2H4            7.778-15
 N2O             2.905-14
 N3              3.236-16
 N3H             9.787-15
 *O              9.953-13
 *OH             4.5524-9
 *O2             3.822-16
 C(gr)           1.3013-1

  * THERMODYNAMIC PROPERTIES FITTED TO 20000.K


                     DETONATION PROPERTIES OF AN IDEAL REACTING GAS
 CASE =                

             REACTANT                       MOLES         ENERGY      TEMP
                                                         KJ/KG-MOL      K
 FUEL        C6H6                         1.0000000     83032.119    300.000
 OXIDANT     O2                           7.5000000        54.358    300.000
 OXIDANT     N2                          28.2143000        53.881    300.000

 O/F=    3.29774  %FUEL= 23.268055  R,EQ.RATIO= 4.000000  PHI,EQ.RATIO= 4.000000

 UNBURNED GAS

 P1, BAR           1.0000
 T1, K             300.00
 H1, KJ/KG         248.77
 M1, (1/n)         33.812
 GAMMA1            1.3169
 SON VEL1,M/SEC     311.7

 BURNED GAS

 P, BAR            14.950
 T, K             1848.87
 RHO, KG/CU M    2.3669 0
 H, KJ/KG         1058.02
 U, KJ/KG          426.39
 G, KJ/KG        -16416.7
 S, KJ/(KG)(K)     9.4516

 M, (1/n)          24.338
 MW, MOL WT        20.985
 (dLV/dLP)t      -1.00077
 (dLV/dLT)p        1.0056
 Cp, KJ/(KG)(K)    1.7171
 GAMMAs            1.2507
 SON VEL,M/SEC      888.8

 DETONATION PARAMETERS

 P/P1              14.950
 T/T1               6.163
 M/M1              0.7198
 RHO/RHO1          1.7461
 DET MACH NUMBER   4.9792
 DET VEL,M/SEC     1551.9

 MOLE FRACTIONS

 *C              5.171-14
 *CH             9.179-13
 CH2             9.649-10
 CH3             2.3972-6
 CH2OH           1.276-11
 CH3O            1.016-12
 CH4             3.9818-4
 CH3OH           2.190-10
 *CN             1.1801-8
 *CO             2.3413-1
 *CO2            5.3483-5
 COOH            1.766-11
 *C2             2.302-15
 C2H             1.545-10
 C2H2,acetylene  4.8173-5
 C2H2,vinylidene 1.8408-9
 CH2CO,ketene    3.2318-7
 O(CH)2O         6.214-14
 C2H3,vinyl      4.6718-9
 CH3CN           1.5652-6
 CH3CO,acetyl    8.783-11
 C2H4            2.6406-6
 C2H4O,ethylen-o 1.154-14
 CH3CHO,ethanal  2.671-10
 CH3COOH         4.393-14
 C2H5            4.239-10
 C2H6            8.6701-9
 C2H5OH          3.228-14
 CH3OCH3         1.951-16
 CNC             5.261-14
 OCCN            6.970-11
 C2N2            1.7204-7
 C2O             6.371-11
 *C3             2.826-14
 C3H3,1-propynl  9.192-13
 C3H3,2-propynl  8.3231-9
 C3H4,allene     5.1975-9
 C3H4,propyne    1.3284-8
 C3H4,cyclo-     1.482-11
 C3H5,allyl      9.532-11
 C3H6,propylene  5.780-10
 C3H6,cyclo-     1.728-12
 C3H6O,acetone   2.441-14
 C3H6O,propanal  1.338-14
 C3H7,n-propyl   2.364-14
 C3H7,i-propyl   2.045-14
 C3H8            4.922-13
 CNCOCN          6.216-15
 C3O2            1.761-10
 C4H2,butadiyne  4.9412-9
 C4H4,1,3-cyclo- 1.753-14
 C4H6,butadiene  1.110-11
 C4H6,1butyne    8.191-13
 C4H6,2butyne    7.161-13
 C4H6,cyclo-     2.054-14
 C4H8,1-butene   3.041-14
 C4H8,cis2-buten 1.273-14
 C4H8,tr2-butene 1.429-14
 C4H8,isobutene  1.603-14
 C4N2            1.542-11
 C5H6,1,3cyclo-  2.466-13
 C5H8,cyclo-     1.467-16
 C6H2            5.362-13
 C6H5,phenyl     3.178-15
 C6H6            1.469-12
 C7H7,benzyl     1.019-16
 C7H8            4.623-16
 *H              5.5251-5
 HCN             2.5083-3
 HCO             1.1449-7
 HCCN            9.021-15
 HCCO            2.272-10
 HNC             9.3146-5
 HNCO            6.6231-7
 HNO             8.731-14
 *H2             1.8514-1
 HCHO,formaldehy 3.1538-7
 HCOOH           2.862-10
 H2O             1.6960-4
 *N              1.357-11
 NCO             7.901-11
 *NH             2.587-10
 NH2             2.4118-8
 NH3             2.4384-5
 NH2OH           2.720-15
 *NO             1.468-10
 *N2             4.3960-1
 NCN             1.628-13
 N2H2            1.471-12
 N2H4            7.657-15
 N2O             2.615-14
 N3              2.661-16
 N3H             8.603-15
 *O              8.448-13
 *OH             4.2568-9
 *O2             3.399-16
 C(gr)           1.3776-1

  * THERMODYNAMIC PROPERTIES FITTED TO 20000.K



