
 *******************************************************************************

         NASA-GLENN CHEMICAL EQUILIBRIUM PROGRAM CEA2, MAY 21, 2004
                   BY  BONNIE MCBRIDE AND SANFORD GORDON
      REFS: NASA RP-1311, PART I, 1994 AND NASA RP-1311, PART II, 1996

 *******************************************************************************



 problem    phi,eq.ratio=0.5,0.6,0.7,0.8,0.9,1,1.1,1.2,1.3,1.4,1.5,1.6,1.7,1.8,1.
 9,2,
       det   t,k=300,  p,bar=1,
 react
   fuel=C6H6 moles=1 t,k=300
   oxid=O2 moles=7.5 t,k=300
   oxid=N2 moles=28.2143 t,k=300
 output
      trace=1e-16 siunits short
 end


                     DETONATION PROPERTIES OF AN IDEAL REACTING GAS
 CASE =                

             REACTANT                       MOLES         ENERGY      TEMP
                                                         KJ/KG-MOL      K
 FUEL        C6H6                         1.0000000     83032.119    300.000
 OXIDANT     O2                           7.5000000        54.358    300.000
 OXIDANT     N2                          28.2143000        53.881    300.000

 O/F=   26.38190  %FUEL=  3.652047  R,EQ.RATIO= 0.500000  PHI,EQ.RATIO= 0.500000

 UNBURNED GAS

 P1, BAR           1.0000
 T1, K             300.00
 H1, KJ/KG          40.62
 M1, (1/n)         29.530
 GAMMA1            1.3849
 SON VEL1,M/SEC     342.0

 BURNED GAS

 P, BAR            12.362
 T, K             2120.59
 RHO, KG/CU M    2.0552 0
 H, KJ/KG          796.88
 U, KJ/KG          195.41
 G, KJ/KG        -17085.4
 S, KJ/(KG)(K)     8.4327

 M, (1/n)          29.314
 (dLV/dLP)t      -1.00018
 (dLV/dLT)p        1.0058
 Cp, KJ/(KG)(K)    1.4389
 GAMMAs            1.2488
 SON VEL,M/SEC      866.7

 DETONATION PARAMETERS

 P/P1              12.362
 T/T1               7.069
 M/M1              0.9927
 RHO/RHO1          1.7360
 DET MACH NUMBER   4.3990
 DET VEL,M/SEC     1504.5

 MOLE FRACTIONS

 *CO             2.5271-4
 *CO2            8.1980-2
 COOH            1.1702-9
 *H              5.0299-6
 HCN             1.624-14
 HCO             4.272-12
 HNC             1.013-15
 HNCO            7.546-12
 HNO             4.5003-8
 HNO2            4.6657-7
 HNO3            2.739-10
 HO2             3.1554-6
 *H2             2.4936-5
 HCHO,formaldehy 3.197-14
 HCOOH           4.903-11
 H2O             4.0522-2
 H2O2            1.2244-7
 *N              1.1620-9
 NCO             7.710-13
 *NH             7.795-11
 NH2             1.684-11
 NH3             2.263-11
 NH2OH           3.824-14
 *NO             7.1070-3
 NO2             2.4684-5
 NO3             1.002-10
 *N2             7.6981-1
 N2H2            1.459-15
 N2O             1.3831-6
 N2O3            3.958-12
 N2O4            5.419-16
 N3              2.083-14
 N3H             1.977-15
 *O              1.4333-4
 *OH             1.1289-3
 *O2             9.8995-2
 O3              1.0777-8

  * THERMODYNAMIC PROPERTIES FITTED TO 20000.K


                     DETONATION PROPERTIES OF AN IDEAL REACTING GAS
 CASE =                

             REACTANT                       MOLES         ENERGY      TEMP
                                                         KJ/KG-MOL      K
 FUEL        C6H6                         1.0000000     83032.119    300.000
 OXIDANT     O2                           7.5000000        54.358    300.000
 OXIDANT     N2                          28.2143000        53.881    300.000

 O/F=   21.98492  %FUEL=  4.350679  R,EQ.RATIO= 0.600000  PHI,EQ.RATIO= 0.600000

 UNBURNED GAS

 P1, BAR           1.0000
 T1, K             300.00
 H1, KJ/KG          48.04
 M1, (1/n)         29.664
 GAMMA1            1.3823
 SON VEL1,M/SEC     340.9

 BURNED GAS

 P, BAR            13.994
 T, K             2364.85
 RHO, KG/CU M    2.0900 0
 H, KJ/KG          905.19
 U, KJ/KG          235.63
 G, KJ/KG        -19342.9
 S, KJ/(KG)(K)     8.5621

 M, (1/n)          29.366
 (dLV/dLP)t      -1.00077
 (dLV/dLT)p        1.0217
 Cp, KJ/(KG)(K)    1.5968
 GAMMAs            1.2260
 SON VEL,M/SEC      906.0

 DETONATION PARAMETERS

 P/P1              13.994
 T/T1               7.883
 M/M1              0.9900
 RHO/RHO1          1.7574
 DET MACH NUMBER   4.6702
 DET VEL,M/SEC     1592.2

 MOLE FRACTIONS

 *CN             1.796-14
 *CO             1.6100-3
 *CO2            9.6529-2
 COOH            9.7384-9
 *H              4.1993-5
 HCN             1.259-12
 HCO             1.647-10
 HNC             1.130-13
 HNCO            1.247-10
 HNO             1.7982-7
 HNO2            6.1527-7
 HNO3            2.533-10
 HO2             6.3564-6
 *H2             1.3654-4
 HCHO,formaldehy 1.253-12
 HCOOH           4.024-10
 H2O             4.7487-2
 H2O2            2.5675-7
 *N              1.8170-8
 NCO             2.283-11
 *NH             1.4729-9
 NH2             2.879-10
 NH3             2.372-10
 NH2OH           3.930-13
 *NO             1.0620-2
 NO2             2.4961-5
 NO3             1.239-10
 *N2             7.6382-1
 N2H2            3.196-14
 N2O             2.1777-6
 N2O3            5.844-12
 N2O4            5.096-16
 N3              2.952-13
 N3H             2.997-14
 *O              5.2912-4
 *OH             2.8427-3
 *O2             7.6349-2
 O3              1.8852-8

  * THERMODYNAMIC PROPERTIES FITTED TO 20000.K


                     DETONATION PROPERTIES OF AN IDEAL REACTING GAS
 CASE =                

             REACTANT                       MOLES         ENERGY      TEMP
                                                         KJ/KG-MOL      K
 FUEL        C6H6                         1.0000000     83032.119    300.000
 OXIDANT     O2                           7.5000000        54.358    300.000
 OXIDANT     N2                          28.2143000        53.881    300.000

 O/F=   18.84422  %FUEL=  5.039252  R,EQ.RATIO= 0.700000  PHI,EQ.RATIO= 0.700000

 UNBURNED GAS

 P1, BAR           1.0000
 T1, K             300.00
 H1, KJ/KG          55.34
 M1, (1/n)         29.797
 GAMMA1            1.3798
 SON VEL1,M/SEC     339.9

 BURNED GAS

 P, BAR            15.440
 T, K             2565.40
 RHO, KG/CU M    2.1251 0
 H, KJ/KG          999.45
 U, KJ/KG          272.93
 G, KJ/KG        -21253.7
 S, KJ/(KG)(K)     8.6743

 M, (1/n)          29.359
 (dLV/dLP)t      -1.00224
 (dLV/dLT)p        1.0581
 Cp, KJ/(KG)(K)    1.8732
 GAMMAs            1.2005
 SON VEL,M/SEC      933.9

 DETONATION PARAMETERS

 P/P1              15.440
 T/T1               8.551
 M/M1              0.9853
 RHO/RHO1          1.7790
 DET MACH NUMBER   4.8885
 DET VEL,M/SEC     1661.4

 MOLE FRACTIONS

 *C              4.331-16
 CH2OH           1.734-16
 *CN             7.004-13
 *CO             5.9821-3
 *CO2            1.0766-1
 COOH            4.2889-8
 *H              1.8352-4
 HCN             2.872-11
 HCO             2.1777-9
 HNC             3.295-12
 HNCO            9.363-10
 HNO             4.5286-7
 HNO2            6.8315-7
 HNO3            2.082-10
 HO2             9.3337-6
 *H2             4.6793-4
 HCHO,formaldehy 1.760-11
 HCOOH           1.8473-9
 H2O             5.3679-2
 H2O2            4.0583-7
 *N              1.1667-7
 NCO             2.433-10
 *NH             1.1241-8
 NH2             2.1522-9
 NH3             1.3336-9
 NH2OH           2.064-12
 *NO             1.2987-2
 NO2             2.2062-5
 NO3             1.183-10
 *N2             7.5691-1
 N2H2            2.874-13
 NH2NO2          2.303-16
 N2O             2.7902-6
 N2O3            6.340-12
 N2O4            3.843-16
 N3              1.797-12
 N3H             2.001-13
 *O              1.1913-3
 *OH             5.1556-3
 *O2             5.5742-2
 O3              2.2931-8

  * THERMODYNAMIC PROPERTIES FITTED TO 20000.K


                     DETONATION PROPERTIES OF AN IDEAL REACTING GAS
 CASE =                

             REACTANT                       MOLES         ENERGY      TEMP
                                                         KJ/KG-MOL      K
 FUEL        C6H6                         1.0000000     83032.119    300.000
 OXIDANT     O2                           7.5000000        54.358    300.000
 OXIDANT     N2                          28.2143000        53.881    300.000

 O/F=   16.48869  %FUEL=  5.717981  R,EQ.RATIO= 0.800000  PHI,EQ.RATIO= 0.800000

 UNBURNED GAS

 P1, BAR           1.0000
 T1, K             300.00
 H1, KJ/KG          62.55
 M1, (1/n)         29.930
 GAMMA1            1.3773
 SON VEL1,M/SEC     338.8

 BURNED GAS

 P, BAR            16.632
 T, K             2716.02
 RHO, KG/CU M    2.1561 0
 H, KJ/KG         1076.45
 U, KJ/KG          305.06
 G, KJ/KG        -22752.7
 S, KJ/(KG)(K)     8.7736

 M, (1/n)          29.275
 (dLV/dLP)t      -1.00461
 (dLV/dLT)p        1.1130
 Cp, KJ/(KG)(K)    2.2457
 GAMMAs            1.1794
 SON VEL,M/SEC      953.8

 DETONATION PARAMETERS

 P/P1              16.632
 T/T1               9.053
 M/M1              0.9781
 RHO/RHO1          1.7969
 DET MACH NUMBER   5.0587
 DET VEL,M/SEC     1713.9

 MOLE FRACTIONS

 *C              1.102-14
 *CH             1.146-15
 CH2             1.138-15
 CH3             1.307-15
 CH2OH           2.348-15
 CH3O            4.547-16
 CH4             1.791-16
 *CN             8.790-12
 *CO             1.4909-2
 *CO2            1.1367-1
 COOH            1.1702-7
 HO(CO)2OH       1.408-16
 OCCN            3.473-16
 C2O             1.336-15
 *H              5.0227-4
 HCN             2.674-10
 HCO             1.3110-8
 HNC             3.601-11
 HNCO            3.9121-9
 HNO             8.0743-7
 HNO2            6.6005-7
 HNO3            1.536-10
 HO2             1.0783-5
 *H2             1.1484-3
 HCHO,formaldehy 1.162-10
 HCOOH           5.4646-9
 H2O             5.9205-2
 H2O2            5.1797-7
 *N              3.9113-7
 NCO             1.2141-9
 *NH             4.4381-8
 NH2             8.8301-9
 NH3             4.7842-9
 NH2OH           6.597-12
 *NO             1.3646-2
 NO2             1.7428-5
 NO3             9.143-11
 *N2             7.4895-1
 NCN             7.124-16
 N2H2            1.342-12
 NH2NO2          4.417-16
 N2O             3.0406-6
 N2O3            5.342-12
 N2O4            2.376-16
 N3              5.859-12
 N3H             7.298-13
 *O              1.8625-3
 *OH             7.3563-3
 *O2             3.8714-2
 O3              2.0867-8

  * THERMODYNAMIC PROPERTIES FITTED TO 20000.K


                     DETONATION PROPERTIES OF AN IDEAL REACTING GAS
 CASE =                

             REACTANT                       MOLES         ENERGY      TEMP
                                                         KJ/KG-MOL      K
 FUEL        C6H6                         1.0000000     83032.119    300.000
 OXIDANT     O2                           7.5000000        54.358    300.000
 OXIDANT     N2                          28.2143000        53.881    300.000

 O/F=   14.65661  %FUEL=  6.387078  R,EQ.RATIO= 0.900000  PHI,EQ.RATIO= 0.900000

 UNBURNED GAS

 P1, BAR           1.0000
 T1, K             300.00
 H1, KJ/KG          69.65
 M1, (1/n)         30.061
 GAMMA1            1.3749
 SON VEL1,M/SEC     337.8

 BURNED GAS

 P, BAR            17.559
 T, K             2821.68
 RHO, KG/CU M    2.1795 0
 H, KJ/KG         1136.53
 U, KJ/KG          330.89
 G, KJ/KG        -23872.0
 S, KJ/(KG)(K)     8.8630

 M, (1/n)          29.121
 (dLV/dLP)t      -1.00710
 (dLV/dLT)p        1.1682
 Cp, KJ/(KG)(K)    2.6008
 GAMMAs            1.1665
 SON VEL,M/SEC      969.4

 DETONATION PARAMETERS

 P/P1              17.559
 T/T1               9.406
 M/M1              0.9687
 RHO/RHO1          1.8085
 DET MACH NUMBER   5.1904
 DET VEL,M/SEC     1753.1

 MOLE FRACTIONS

 *C              1.006-13
 *CH             1.230-14
 CH2             1.238-14
 CH3             1.365-14
 CH2OH           1.556-14
 CH3O            3.258-15
 CH4             1.903-15
 CH3OH           4.533-16
 *CN             5.118-11
 *CO             2.8320-2
 *CO2            1.1455-1
 COOH            2.2861-7
 CH2CO,ketene    3.984-16
 HO(CO)2OH       3.556-16
 OCCN            3.414-15
 C2O             1.472-14
 *H              1.0038-3
 HCN             1.3624-9
 HCO             4.6256-8
 HCCO            4.226-16
 HNC             2.031-10
 HNCO            1.0954-8
 HNO             1.1281-6
 HNO2            5.7095-7
 HNO3            1.026-10
 HO2             1.0441-5
 *H2             2.2639-3
 HCHO,formaldehy 4.607-10
 HCOOH           1.1905-8
 H2O             6.4219-2
 H2O2            5.6545-7
 *N              8.4151-7
 NCO             3.5983-9
 *NH             1.1209-7
 NH2             2.4190-8
 NH3             1.2733-8
 NH2OH           1.498-11
 *NO             1.2829-2
 NO2             1.2527-5
 NO3             5.941-11
 *N2             7.4005-1
 NCN             4.800-15
 N2H2            4.008-12
 NH2NO2          6.279-16
 N2O             2.9323-6
 N2O3            3.673-12
 N2O4            1.231-16
 N3              1.241-11
 N3H             1.758-12
 *O              2.2553-3
 *OH             8.8858-3
 *O2             2.5599-2
 O3              1.5110-8

  * THERMODYNAMIC PROPERTIES FITTED TO 20000.K


                     DETONATION PROPERTIES OF AN IDEAL REACTING GAS
 CASE =                

             REACTANT                       MOLES         ENERGY      TEMP
                                                         KJ/KG-MOL      K
 FUEL        C6H6                         1.0000000     83032.119    300.000
 OXIDANT     O2                           7.5000000        54.358    300.000
 OXIDANT     N2                          28.2143000        53.881    300.000

 O/F=   13.19095  %FUEL=  7.046744  R,EQ.RATIO= 1.000000  PHI,EQ.RATIO= 1.000000

 UNBURNED GAS

 P1, BAR           1.0000
 T1, K             300.00
 H1, KJ/KG          76.65
 M1, (1/n)         30.192
 GAMMA1            1.3725
 SON VEL1,M/SEC     336.7

 BURNED GAS

 P, BAR            18.256
 T, K             2891.43
 RHO, KG/CU M    2.1956 0
 H, KJ/KG         1182.44
 U, KJ/KG          350.95
 G, KJ/KG        -24680.4
 S, KJ/(KG)(K)     8.9447

 M, (1/n)          28.913
 (dLV/dLP)t      -1.00872
 (dLV/dLT)p        1.2023
 Cp, KJ/(KG)(K)    2.8157
 GAMMAs            1.1613
 SON VEL,M/SEC      982.7

 DETONATION PARAMETERS

 P/P1              18.256
 T/T1               9.638
 M/M1              0.9576
 RHO/RHO1          1.8139
 DET MACH NUMBER   5.2933
 DET VEL,M/SEC     1782.5

 MOLE FRACTIONS

 *C              4.737-13
 *CH             6.828-14
 CH2             7.386-14
 CH3             8.480-14
 CH2OH           6.556-14
 CH3O            1.441-14
 CH4             1.276-14
 CH3OH           2.118-15
 *CN             1.822-10
 CNN             1.707-16
 *CO             4.5274-2
 *CO2            1.1123-1
 COOH            3.5696-7
 CH2CO,ketene    2.863-15
 O(CH)2O         1.027-16
 HO(CO)2OH       6.755-16
 OCCN            1.816-14
 C2N2            1.073-16
 C2O             8.408-14
 C3O2            1.055-16
 *H              1.6365-3
 HCN             4.7638-9
 HCO             1.1582-7
 HCCO            2.864-15
 HNC             7.565-10
 HNCO            2.3769-8
 HNO             1.3257-6
 HNO2            4.4801-7
 HNO3            6.170-11
 HO2             8.7862-6
 *H2             3.9031-3
 HCHO,formaldehy 1.3231-9
 HCOOH           2.1224-8
 H2O             6.8756-2
 H2O2            5.4679-7
 *N              1.3461-6
 NCO             7.5820-9
 *NH             2.1124-7
 NH2             5.1149-8
 NH3             2.8215-8
 NH2OH           2.706-11
 *NO             1.1044-2
 NO2             8.2138-6
 NO3             3.292-11
 *N2             7.3039-1
 NCN             1.871-14
 N2H2            8.950-12
 NH2NO2          7.158-16
 N2O             2.5655-6
 N2O3            2.108-12
 N3              1.966-11
 N3H             3.216-12
 *O              2.2721-3
 *OH             9.5328-3
 *O2             1.5940-2
 O3              8.9759-9

  * THERMODYNAMIC PROPERTIES FITTED TO 20000.K


                     DETONATION PROPERTIES OF AN IDEAL REACTING GAS
 CASE =                

             REACTANT                       MOLES         ENERGY      TEMP
                                                         KJ/KG-MOL      K
 FUEL        C6H6                         1.0000000     83032.119    300.000
 OXIDANT     O2                           7.5000000        54.358    300.000
 OXIDANT     N2                          28.2143000        53.881    300.000

 O/F=   11.99177  %FUEL=  7.697178  R,EQ.RATIO= 1.100000  PHI,EQ.RATIO= 1.100000

 UNBURNED GAS

 P1, BAR           1.0000
 T1, K             300.00
 H1, KJ/KG          83.55
 M1, (1/n)         30.322
 GAMMA1            1.3702
 SON VEL1,M/SEC     335.7

 BURNED GAS

 P, BAR            18.754
 T, K             2931.62
 RHO, KG/CU M    2.2054 0
 H, KJ/KG         1216.28
 U, KJ/KG          365.92
 G, KJ/KG        -25226.7
 S, KJ/(KG)(K)     9.0199

 M, (1/n)          28.664
 (dLV/dLP)t      -1.00886
 (dLV/dLT)p        1.2035
 Cp, KJ/(KG)(K)    2.8229
 GAMMAs            1.1627
 SON VEL,M/SEC      994.4

 DETONATION PARAMETERS

 P/P1              18.754
 T/T1               9.772
 M/M1              0.9453
 RHO/RHO1          1.8142
 DET MACH NUMBER   5.3732
 DET VEL,M/SEC     1803.9

 MOLE FRACTIONS

 *C              1.425-12
 *CH             2.448-13
 CH2             2.996-13
 CH3             3.824-13
 CH2OH           2.064-13
 CH3O            4.665-14
 CH4             6.529-14
 CH3OH           7.684-15
 *CN             4.693-10
 CNN             4.985-16
 *CO             6.4827-2
 *CO2            1.0465-1
 COOH            4.7517-7
 C2H2,acetylene  3.340-16
 CH2CO,ketene    1.429-14
 O(CH)2O         3.609-16
 HO(CO)2OH       1.048-15
 OCCN            6.486-14
 C2N2            5.354-16
 C2O             3.126-13
 C3O2            4.988-16
 *H              2.3210-3
 HCN             1.3206-8
 HCO             2.3123-7
 HCCO            1.273-14
 HNC             2.1717-9
 HNCO            4.3805-8
 HNO             1.3575-6
 HNO2            3.1759-7
 HNO3            3.269-11
 HO2             6.4793-6
 *H2             6.2071-3
 HCHO,formaldehy 3.0992-9
 HCOOH           3.3063-8
 H2O             7.2722-2
 H2O2            4.7350-7
 *N              1.7362-6
 NCO             1.2645-8
 *NH             3.2438-7
 NH2             9.1026-8
 NH3             5.6028-8
 NH2OH           4.157-11
 *NO             8.7501-3
 NO2             4.8479-6
 NO3             1.533-11
 *N2             7.2011-1
 NCN             5.064-14
 N2H2            1.641-11
 NH2NO2          6.782-16
 N2H4            1.571-16
 N2O             2.0498-6
 N2O3            1.000-12
 N3              2.518-11
 N3H             4.852-12
 *O              1.9659-3
 *OH             9.2846-3
 *O2             9.1484-3
 O3              4.3517-9

  * THERMODYNAMIC PROPERTIES FITTED TO 20000.K


                     DETONATION PROPERTIES OF AN IDEAL REACTING GAS
 CASE =                

             REACTANT                       MOLES         ENERGY      TEMP
                                                         KJ/KG-MOL      K
 FUEL        C6H6                         1.0000000     83032.119    300.000
 OXIDANT     O2                           7.5000000        54.358    300.000
 OXIDANT     N2                          28.2143000        53.881    300.000

 O/F=   10.99246  %FUEL=  8.338573  R,EQ.RATIO= 1.200000  PHI,EQ.RATIO= 1.200000

 UNBURNED GAS

 P1, BAR           1.0000
 T1, K             300.00
 H1, KJ/KG          90.35
 M1, (1/n)         30.452
 GAMMA1            1.3679
 SON VEL1,M/SEC     334.7

 BURNED GAS

 P, BAR            19.061
 T, K             2945.12
 RHO, KG/CU M    2.2092 0
 H, KJ/KG         1238.80
 U, KJ/KG          376.03
 G, KJ/KG        -25530.5
 S, KJ/(KG)(K)     9.0894

 M, (1/n)          28.382
 (dLV/dLP)t      -1.00760
 (dLV/dLT)p        1.1742
 Cp, KJ/(KG)(K)    2.6373
 GAMMAs            1.1703
 SON VEL,M/SEC     1004.9

 DETONATION PARAMETERS

 P/P1              19.061
 T/T1               9.817
 M/M1              0.9320
 RHO/RHO1          1.8096
 DET MACH NUMBER   5.4324
 DET VEL,M/SEC     1818.4

 MOLE FRACTIONS

 *C              3.071-12
 *CH             6.390-13
 CH2             9.320-13
 CH3             1.409-12
 CH2OH           5.330-13
 CH3O            1.215-13
 CH4             2.870-13
 CH3OH           2.378-14
 *CN             9.589-10
 CNN             1.060-15
 *CO             8.6215-2
 *CO2            9.5574-2
 COOH            5.5662-7
 C2H2,acetylene  1.931-15
 CH2CO,ketene    5.666-14
 O(CH)2O         1.005-15
 HO(CO)2OH       1.387-15
 OCCN            1.757-13
 C2N2            2.050-15
 C2O             8.596-13
 C3O2            1.767-15
 *H              2.9576-3
 HCN             3.1624-8
 HCO             3.9254-7
 HCCO            4.246-14
 HNC             5.2606-9
 HNCO            7.2312-8
 HNO             1.2234-6
 HNO2            1.9995-7
 HNO3            1.475-11
 HO2             4.1395-6
 *H2             9.3957-3
 HCHO,formaldehy 6.3441-9
 HCOOH           4.6663-8
 H2O             7.5895-2
 H2O2            3.6487-7
 *N              1.8714-6
 NCO             1.7657-8
 *NH             4.2363-7
 NH2             1.4277-7
 NH3             1.0422-7
 NH2OH           5.605-11
 *NO             6.3341-3
 NO2             2.5118-6
 NO3             5.794-12
 *N2             7.0920-1
 NCN             1.050-13
 N2H2            2.595-11
 NH2NO2          5.366-16
 N2H4            3.733-16
 N2O             1.4856-6
 N2O3            3.798-13
 N3              2.700-11
 N3H             6.280-12
 *O              1.4674-3
 *OH             8.2432-3
 *O2             4.7039-3
 O3              1.6695-9

  * THERMODYNAMIC PROPERTIES FITTED TO 20000.K


                     DETONATION PROPERTIES OF AN IDEAL REACTING GAS
 CASE =                

             REACTANT                       MOLES         ENERGY      TEMP
                                                         KJ/KG-MOL      K
 FUEL        C6H6                         1.0000000     83032.119    300.000
 OXIDANT     O2                           7.5000000        54.358    300.000
 OXIDANT     N2                          28.2143000        53.881    300.000

 O/F=   10.14689  %FUEL=  8.971116  R,EQ.RATIO= 1.300000  PHI,EQ.RATIO= 1.300000

 UNBURNED GAS

 P1, BAR           1.0000
 T1, K             300.00
 H1, KJ/KG          97.07
 M1, (1/n)         30.580
 GAMMA1            1.3656
 SON VEL1,M/SEC     333.8

 BURNED GAS

 P, BAR            19.179
 T, K             2932.92
 RHO, KG/CU M    2.2077 0
 H, KJ/KG         1250.17
 U, KJ/KG          381.44
 G, KJ/KG        -25596.0
 S, KJ/(KG)(K)     9.1534

 M, (1/n)          28.071
 (dLV/dLP)t      -1.00563
 (dLV/dLT)p        1.1294
 Cp, KJ/(KG)(K)    2.3491
 GAMMAs            1.1837
 SON VEL,M/SEC     1014.1

 DETONATION PARAMETERS

 P/P1              19.179
 T/T1               9.776
 M/M1              0.9179
 RHO/RHO1          1.8007
 DET MACH NUMBER   5.4713
 DET VEL,M/SEC     1826.1

 MOLE FRACTIONS

 *C              5.004-12
 *CH             1.291-12
 CH2             2.372-12
 CH3             4.539-12
 CH2OH           1.185-12
 CH3O            2.681-13
 CH4             1.163-12
 CH3OH           6.623-14
 *CN             1.6314-9
 CNN             1.731-15
 *CO             1.0872-1
 *CO2            8.4715-2
 COOH            5.8128-7
 C2H             3.679-16
 C2H2,acetylene  9.342-15
 CH2CO,ketene    1.929-13
 O(CH)2O         2.357-15
 HO(CO)2OH       1.596-15
 OCCN            3.860-13
 C2N2            6.550-15
 C2O             1.872-12
 C3O2            5.098-15
 *H              3.4330-3
 HCN             6.8767-8
 HCO             5.8575-7
 HCCO            1.145-13
 HNC             1.1321-8
 HNCO            1.1015-7
 HNO             9.6738-7
 HNO2            1.0942-7
 HNO3            5.459-12
 HO2             2.2462-6
 *H2             1.3771-2
 HCHO,formaldehy 1.1793-8
 HCOOH           6.0751-8
 H2O             7.7908-2
 H2O2            2.4658-7
 *N              1.7048-6
 NCO             2.1208-8
 *NH             4.7866-7
 NH2             2.0169-7
 NH3             1.8618-7
 NH2OH           6.703-11
 *NO             4.1382-3
 NO2             1.1111-6
 NO3             1.706-12
 *N2             6.9763-1
 NCN             1.754-13
 N2H2            3.622-11
 NH2NO2          3.508-16
 N2H4            7.851-16
 N2O             9.6500-7
 N2O3            1.108-13
 N3              2.448-11
 N3H             7.087-12
 *O              9.3691-4
 *OH             6.6380-3
 *O2             2.1051-3
 O3              4.873-10

  * THERMODYNAMIC PROPERTIES FITTED TO 20000.K


                     DETONATION PROPERTIES OF AN IDEAL REACTING GAS
 CASE =                

             REACTANT                       MOLES         ENERGY      TEMP
                                                         KJ/KG-MOL      K
 FUEL        C6H6                         1.0000000     83032.119    300.000
 OXIDANT     O2                           7.5000000        54.358    300.000
 OXIDANT     N2                          28.2143000        53.881    300.000

 O/F=    9.42211  %FUEL=  9.594988  R,EQ.RATIO= 1.400000  PHI,EQ.RATIO= 1.400000

 UNBURNED GAS

 P1, BAR           1.0000
 T1, K             300.00
 H1, KJ/KG         103.69
 M1, (1/n)         30.709
 GAMMA1            1.3634
 SON VEL1,M/SEC     332.8

 BURNED GAS

 P, BAR            19.128
 T, K             2896.88
 RHO, KG/CU M    2.2026 0
 H, KJ/KG         1251.43
 U, KJ/KG          383.01
 G, KJ/KG        -25435.0
 S, KJ/(KG)(K)     9.2121

 M, (1/n)          27.735
 (dLV/dLP)t      -1.00379
 (dLV/dLT)p        1.0871
 Cp, KJ/(KG)(K)    2.0702
 GAMMAs            1.2010
 SON VEL,M/SEC     1021.3

 DETONATION PARAMETERS

 P/P1              19.128
 T/T1               9.656
 M/M1              0.9032
 RHO/RHO1          1.7891
 DET MACH NUMBER   5.4904
 DET VEL,M/SEC     1827.1

 MOLE FRACTIONS

 *C              6.371-12
 *CH             2.090-12
 CH2             5.106-12
 CH3             1.321-11
 CH2OH           2.325-12
 CH3O            5.131-13
 CH4             4.493-12
 CH3OH           1.701-13
 *CN             2.3769-9
 CNN             2.244-15
 *CO             1.3150-1
 *CO2            7.2918-2
 COOH            5.4515-7
 C2H             1.106-15
 C2H2,acetylene  3.983-14
 CH2CO,ketene    5.878-13
 O(CH)2O         4.806-15
 HO(CO)2OH       1.615-15
 CH3CO,acetyl    1.457-16
 OCCN            7.151-13
 C2N2            1.832-14
 C2O             3.360-12
 C3O2            1.258-14
 *H              3.6533-3
 HCN             1.3942-7
 HCO             7.8206-7
 HCCO            2.605-13
 HNC             2.2247-8
 HNCO            1.5727-7
 HNO             6.7035-7
 HNO2            5.1504-8
 HNO3            1.630-12
 HO2             1.0251-6
 *H2             1.9660-2
 HCHO,formaldehy 2.0285-8
 HCOOH           7.3567-8
 H2O             7.8302-2
 H2O2            1.4486-7
 *N              1.3229-6
 NCO             2.2278-8
 *NH             4.7229-7
 NH2             2.5921-7
 NH3             3.2242-7
 NH2OH           7.137-11
 *NO             2.4273-3
 NO2             4.1456-7
 NO3             3.846-13
 *N2             6.8538-1
 NCN             2.434-13
 N2H2            4.512-11
 NH2NO2          1.884-16
 N2H4            1.486-15
 N2O             5.5926-7
 N2O3            2.446-14
 N3              1.895-11
 N3H             7.041-12
 *O              5.1019-4
 *OH             4.8326-3
 *O2             8.0893-4
 O3              1.064-10

  * THERMODYNAMIC PROPERTIES FITTED TO 20000.K


                     DETONATION PROPERTIES OF AN IDEAL REACTING GAS
 CASE =                

             REACTANT                       MOLES         ENERGY      TEMP
                                                         KJ/KG-MOL      K
 FUEL        C6H6                         1.0000000     83032.119    300.000
 OXIDANT     O2                           7.5000000        54.358    300.000
 OXIDANT     N2                          28.2143000        53.881    300.000

 O/F=    8.79397  %FUEL= 10.210367  R,EQ.RATIO= 1.500000  PHI,EQ.RATIO= 1.500000

 UNBURNED GAS

 P1, BAR           1.0000
 T1, K             300.00
 H1, KJ/KG         110.22
 M1, (1/n)         30.836
 GAMMA1            1.3613
 SON VEL1,M/SEC     331.8

 BURNED GAS

 P, BAR            18.959
 T, K             2841.84
 RHO, KG/CU M    2.1972 0
 H, KJ/KG         1245.25
 U, KJ/KG          382.40
 G, KJ/KG        -25086.6
 S, KJ/(KG)(K)     9.2658

 M, (1/n)          27.384
 (dLV/dLP)t      -1.00247
 (dLV/dLT)p        1.0566
 Cp, KJ/(KG)(K)    1.8646
 GAMMAs            1.2185
 SON VEL,M/SEC     1025.4

 DETONATION PARAMETERS

 P/P1              18.959
 T/T1               9.473
 M/M1              0.8881
 RHO/RHO1          1.7774
 DET MACH NUMBER   5.4922
 DET VEL,M/SEC     1822.5

 MOLE FRACTIONS

 *C              6.574-12
 *CH             2.792-12
 CH2             9.498-12
 CH3             3.509-11
 CH2OH           4.070-12
 CH3O            8.643-13
 CH4             1.655-11
 CH3OH           4.045-13
 *CN             3.0391-9
 CNN             2.393-15
 *CO             1.5358-1
 *CO2            6.1185-2
 COOH            4.6479-7
 C2H             2.754-15
 C2H2,acetylene  1.526-13
 C2H2,vinylidene 3.271-16
 CH2CO,ketene    1.628-12
 O(CH)2O         8.683-15
 HO(CO)2OH       1.458-15
 CH3CO,acetyl    4.566-16
 OCCN            1.150-12
 C2N2            4.605-14
 C2O             5.132-12
 C3O2            2.731-14
 *H              3.5938-3
 HCN             2.6638-7
 HCO             9.4744-7
 HCCO            5.129-13
 HNC             4.0461-8
 HNCO            2.1229-7
 HNO             4.1283-7
 HNO2            2.1163-8
 HNO3            4.011-13
 HO2             4.0030-7
 *H2             2.7275-2
 HCHO,formaldehy 3.2523-8
 HCOOH           8.3301-8
 H2O             7.6706-2
 H2O2            7.4755-8
 *N              8.9323-7
 NCO             2.0886-8
 *NH             4.1330-7
 NH2             3.0541-7
 NH3             5.3952-7
 NH2OH           6.815-11
 *NO             1.2945-3
 NO2             1.3306-7
 NO3             6.849-14
 *N2             6.7264-1
 NCN             2.889-13
 N2H2            5.074-11
 N2H4            2.545-15
 N2O             2.9337-7
 N2O3            4.223-15
 N3              1.279-11
 N3H             6.257-12
 *O              2.4148-4
 *OH             3.2083-3
 *O2             2.7137-4
 O3              1.801-11

  * THERMODYNAMIC PROPERTIES FITTED TO 20000.K


                     DETONATION PROPERTIES OF AN IDEAL REACTING GAS
 CASE =                

             REACTANT                       MOLES         ENERGY      TEMP
                                                         KJ/KG-MOL      K
 FUEL        C6H6                         1.0000000     83032.119    300.000
 OXIDANT     O2                           7.5000000        54.358    300.000
 OXIDANT     N2                          28.2143000        53.881    300.000

 O/F=    8.24434  %FUEL= 10.817425  R,EQ.RATIO= 1.600000  PHI,EQ.RATIO= 1.600000

 UNBURNED GAS

 P1, BAR           1.0000
 T1, K             300.00
 H1, KJ/KG         116.66
 M1, (1/n)         30.963
 GAMMA1            1.3591
 SON VEL1,M/SEC     330.9

 BURNED GAS

 P, BAR            18.727
 T, K             2774.52
 RHO, KG/CU M    2.1939 0
 H, KJ/KG         1234.68
 U, KJ/KG          381.11
 G, KJ/KG        -24609.1
 S, KJ/(KG)(K)     9.3147

 M, (1/n)          27.026
 (dLV/dLP)t      -1.00165
 (dLV/dLT)p        1.0375
 Cp, KJ/(KG)(K)    1.7343
 GAMMAs            1.2335
 SON VEL,M/SEC     1026.1

 DETONATION PARAMETERS

 P/P1              18.727
 T/T1               9.248
 M/M1              0.8729
 RHO/RHO1          1.7674
 DET MACH NUMBER   5.4807
 DET VEL,M/SEC     1813.5

 MOLE FRACTIONS

 *C              5.750-12
 *CH             3.191-12
 CH2             1.555-11
 CH3             8.505-11
 CH2OH           6.414-12
 CH3O            1.297-12
 CH4             5.732-11
 CH3OH           8.856-13
 *CN             3.5023-9
 CNN             2.190-15
 *CO             1.7419-1
 *CO2            5.0379-2
 COOH            3.6686-7
 C2H             5.849-15
 C2H2,acetylene  5.280-13
 C2H2,vinylidene 9.470-16
 CH2CO,ketene    4.122-12
 O(CH)2O         1.411-14
 HO(CO)2OH       1.198-15
 CH3CN           2.818-16
 CH3CO,acetyl    1.271-15
 C2H4            1.115-16
 OCCN            1.652-12
 C2N2            1.059-13
 C2O             6.885-12
 C3O2            5.339-14
 *H              3.3094-3
 HCN             4.8155-7
 HCO             1.0576-6
 HCCO            8.936-13
 HNC             6.8676-8
 HNCO            2.7264-7
 HNO             2.3197-7
 HNO2            7.8493-9
 HNO3            8.562-14
 HO2             1.3886-7
 *H2             3.6588-2
 HCHO,formaldehy 4.8782-8
 HCOOH           8.8748-8
 H2O             7.3048-2
 H2O2            3.4771-8
 *N              5.4257-7
 NCO             1.7930-8
 *NH             3.2832-7
 NH2             3.3318-7
 NH3             8.6536-7
 NH2OH           5.914-11
 *NO             6.4390-4
 NO2             3.8324-8
 NO3             1.030-14
 *N2             6.5968-1
 NCN             3.033-13
 N2H2            5.231-11
 N2H4            3.958-15
 N2O             1.4320-7
 N2O3            6.112-16
 N3              7.802-12
 N3H             5.089-12
 *O              1.0298-4
 *OH             1.9792-3
 *O2             8.2545-5
 O3              2.537-12

  * THERMODYNAMIC PROPERTIES FITTED TO 20000.K


                     DETONATION PROPERTIES OF AN IDEAL REACTING GAS
 CASE =                

             REACTANT                       MOLES         ENERGY      TEMP
                                                         KJ/KG-MOL      K
 FUEL        C6H6                         1.0000000     83032.119    300.000
 OXIDANT     O2                           7.5000000        54.358    300.000
 OXIDANT     N2                          28.2143000        53.881    300.000

 O/F=    7.75938  %FUEL= 11.416329  R,EQ.RATIO= 1.700000  PHI,EQ.RATIO= 1.700000

 UNBURNED GAS

 P1, BAR           1.0000
 T1, K             300.00
 H1, KJ/KG         123.01
 M1, (1/n)         31.089
 GAMMA1            1.3570
 SON VEL1,M/SEC     330.0

 BURNED GAS

 P, BAR            18.463
 T, K             2700.68
 RHO, KG/CU M    2.1930 0
 H, KJ/KG         1221.75
 U, KJ/KG          379.83
 G, KJ/KG        -24054.2
 S, KJ/(KG)(K)     9.3591

 M, (1/n)          26.671
 (dLV/dLP)t      -1.00115
 (dLV/dLT)p        1.0258
 Cp, KJ/(KG)(K)    1.6557
 GAMMAs            1.2453
 SON VEL,M/SEC     1023.9

 DETONATION PARAMETERS

 P/P1              18.463
 T/T1               9.002
 M/M1              0.8579
 RHO/RHO1          1.7595
 DET MACH NUMBER   5.4601
 DET VEL,M/SEC     1801.6

 MOLE FRACTIONS

 *C              4.446-12
 *CH             3.227-12
 CH2             2.287-11
 CH3             1.889-10
 CH2OH           9.198-12
 CH3O            1.760-12
 CH4             1.848-10
 CH3OH           1.783-12
 *CN             3.7292-9
 CNN             1.791-15
 *CO             1.9293-1
 *CO2            4.0947-2
 COOH            2.7267-7
 C2H             1.092-14
 C2H2,acetylene  1.664-12
 C2H2,vinylidene 2.427-15
 CH2CO,ketene    9.610-12
 O(CH)2O         2.092-14
 HO(CO)2OH       9.114-16
 C2H3,vinyl      2.992-16
 CH3CN           1.196-15
 CH3CO,acetyl    3.178-15
 C2H4            5.571-16
 CH3CHO,ethanal  1.780-16
 CNC             1.084-16
 OCCN            2.173-12
 C2N2            2.262-13
 C2O             8.361-12
 C3O2            9.600-14
 *H              2.8896-3
 HCN             8.2806-7
 HCO             1.1046-6
 HCCO            1.409-12
 HNC             1.0980-7
 HNCO            3.3535-7
 HNO             1.2181-7
 HNO2            2.7072-9
 HNO3            1.657-14
 HO2             4.4262-8
 *H2             4.7348-2
 HCHO,formaldehy 6.8823-8
 HCOOH           8.9581-8
 H2O             6.7567-2
 H2O2            1.4931-8
 *N              3.0561-7
 NCO             1.4427-8
 *NH             2.4204-7
 NH2             3.4020-7
 NH3             1.3241-6
 NH2OH           4.730-11
 *NO             3.0563-4
 NO2             1.0279-8
 NO3             1.384-15
 *N2             6.4679-1
 NCN             2.904-13
 N2H2            5.015-11
 N2H4            5.623-15
 N2O             6.6640-8
 N3              4.428-12
 N3H             3.868-12
 *O              4.0870-5
 *OH             1.1548-3
 *O2             2.3542-5
 O3              3.166-13

  * THERMODYNAMIC PROPERTIES FITTED TO 20000.K


                     DETONATION PROPERTIES OF AN IDEAL REACTING GAS
 CASE =                

             REACTANT                       MOLES         ENERGY      TEMP
                                                         KJ/KG-MOL      K
 FUEL        C6H6                         1.0000000     83032.119    300.000
 OXIDANT     O2                           7.5000000        54.358    300.000
 OXIDANT     N2                          28.2143000        53.881    300.000

 O/F=    7.32831  %FUEL= 12.007243  R,EQ.RATIO= 1.800000  PHI,EQ.RATIO= 1.800000

 UNBURNED GAS

 P1, BAR           1.0000
 T1, K             300.00
 H1, KJ/KG         129.28
 M1, (1/n)         31.214
 GAMMA1            1.3549
 SON VEL1,M/SEC     329.1

 BURNED GAS

 P, BAR            18.183
 T, K             2623.88
 RHO, KG/CU M    2.1939 0
 H, KJ/KG         1207.48
 U, KJ/KG          378.66
 G, KJ/KG        -23455.3
 S, KJ/(KG)(K)     9.3994

 M, (1/n)          26.322
 (dLV/dLP)t      -1.00082
 (dLV/dLT)p        1.0184
 Cp, KJ/(KG)(K)    1.6074
 GAMMAs            1.2547
 SON VEL,M/SEC     1019.8

 DETONATION PARAMETERS

 P/P1              18.183
 T/T1               8.746
 M/M1              0.8433
 RHO/RHO1          1.7532
 DET MACH NUMBER   5.4332
 DET VEL,M/SEC     1787.8

 MOLE FRACTIONS

 *C              3.136-12
 *CH             2.967-12
 CH2             3.080-11
 CH3             3.886-10
 CH2OH           1.215-11
 CH3O            2.189-12
 CH4             5.564-10
 CH3OH           3.322-12
 *CN             3.7439-9
 CNN             1.346-15
 *CO             2.0983-1
 *CO2            3.2939-2
 COOH            1.9294-7
 C2H             1.845-14
 C2H2,acetylene  4.851-12
 C2H2,vinylidene 5.634-15
 CH2CO,ketene    2.090-11
 O(CH)2O         2.875-14
 HO(CO)2OH       6.498-16
 C2H3,vinyl      8.940-16
 CH3CN           4.703-15
 CH3CO,acetyl    7.246-15
 C2H4            2.541-15
 CH3CHO,ethanal  5.569-16
 CNC             1.386-16
 OCCN            2.677-12
 C2N2            4.583-13
 C2O             9.426-12
 C3O2            1.621-13
 *H              2.4156-3
 HCN             1.3668-6
 HCO             1.0930-6
 HCCO            2.054-12
 HNC             1.6726-7
 HNCO            3.9786-7
 HNO             6.0606-8
 HNO2            8.809-10
 HNO3            2.968-15
 HO2             1.3188-8
 *H2             5.9189-2
 HCHO,formaldehy 9.2029-8
 HCOOH           8.6161-8
 H2O             6.0662-2
 H2O2            5.9918-9
 *N              1.6276-7
 NCO             1.1060-8
 *NH             1.6814-7
 NH2             3.2819-7
 NH3             1.9342-6
 NH2OH           3.520-11
 *NO             1.4005-4
 NO2             2.6135-9
 NO3             1.712-16
 *N2             6.3415-1
 NCN             2.597-13
 N2H2            4.525-11
 N2H4            7.359-15
 N2O             2.9934-8
 N3              2.384-12
 N3H             2.787-12
 *O              1.5368-5
 *OH             6.4367-4
 *O2             6.3946-6
 O3              3.609-14

  * THERMODYNAMIC PROPERTIES FITTED TO 20000.K


                     DETONATION PROPERTIES OF AN IDEAL REACTING GAS
 CASE =                

             REACTANT                       MOLES         ENERGY      TEMP
                                                         KJ/KG-MOL      K
 FUEL        C6H6                         1.0000000     83032.119    300.000
 OXIDANT     O2                           7.5000000        54.358    300.000
 OXIDANT     N2                          28.2143000        53.881    300.000

 O/F=    6.94261  %FUEL= 12.590326  R,EQ.RATIO= 1.900000  PHI,EQ.RATIO= 1.900000

 UNBURNED GAS

 P1, BAR           1.0000
 T1, K             300.00
 H1, KJ/KG         135.47
 M1, (1/n)         31.339
 GAMMA1            1.3529
 SON VEL1,M/SEC     328.2

 BURNED GAS

 P, BAR            17.891
 T, K             2546.03
 RHO, KG/CU M    2.1959 0
 H, KJ/KG         1192.26
 U, KJ/KG          377.53
 G, KJ/KG        -22831.2
 S, KJ/(KG)(K)     9.4357

 M, (1/n)          25.983
 (dLV/dLP)t      -1.00060
 (dLV/dLT)p        1.0134
 Cp, KJ/(KG)(K)    1.5761
 GAMMAs            1.2625
 SON VEL,M/SEC     1014.2

 DETONATION PARAMETERS

 P/P1              17.891
 T/T1               8.487
 M/M1              0.8291
 RHO/RHO1          1.7478
 DET MACH NUMBER   5.4018
 DET VEL,M/SEC     1772.6

 MOLE FRACTIONS

 *C              2.063-12
 *CH             2.535-12
 CH2             3.870-11
 CH3             7.524-10
 CH2OH           1.496-11
 CH3O            2.529-12
 CH4             1.5873-9
 CH3OH           5.786-12
 *CN             3.6024-9
 CNN             9.504-16
 *CO             2.2509-1
 *CO2            2.6185-2
 COOH            1.3047-7
 C2H             2.903-14
 C2H2,acetylene  1.341-11
 C2H2,vinylidene 1.218-14
 CH2CO,ketene    4.317-11
 O(CH)2O         3.713-14
 HO(CO)2OH       4.353-16
 C2H3,vinyl      2.476-15
 CH3CN           1.753-14
 CH3CO,acetyl    1.538-14
 C2H4            1.084-14
 CH3CHO,ethanal  1.622-15
 CH3COOH         2.074-16
 CNC             1.656-16
 OCCN            3.148-12
 C2N2            8.996-13
 C2O             1.007-11
 C3O2            2.623-13
 *H              1.9455-3
 HCN             2.1925-6
 HCO             1.0345-6
 HCCO            2.823-12
 HNC             2.4609-7
 HNCO            4.5833-7
 HNO             2.8670-8
 HNO2            2.702-10
 HNO3            4.910-16
 HO2             3.6753-9
 *H2             7.1735-2
 HCHO,formaldehy 1.1762-7
 HCOOH           7.9194-8
 H2O             5.2754-2
 H2O2            2.2459-9
 *N              8.2737-8
 NCO             8.1577-9
 *NH             1.1106-7
 NH2             3.0136-7
 NH3             2.7101-6
 NH2OH           2.448-11
 *NO             6.2030-5
 NO2             6.295-10
 *N2             6.2187-1
 NCN             2.210-13
 N2H2            3.875-11
 N2H4            8.961-15
 N2O             1.2998-8
 N3              1.229-12
 N3H             1.919-12
 *O              5.4987-6
 *OH             3.4328-4
 *O2             1.6519-6
 O3              3.765-15

  * THERMODYNAMIC PROPERTIES FITTED TO 20000.K


                     DETONATION PROPERTIES OF AN IDEAL REACTING GAS
 CASE =                

             REACTANT                       MOLES         ENERGY      TEMP
                                                         KJ/KG-MOL      K
 FUEL        C6H6                         1.0000000     83032.119    300.000
 OXIDANT     O2                           7.5000000        54.358    300.000
 OXIDANT     N2                          28.2143000        53.881    300.000

 O/F=    6.59548  %FUEL= 13.165732  R,EQ.RATIO= 2.000000  PHI,EQ.RATIO= 2.000000

 UNBURNED GAS

 P1, BAR           1.0000
 T1, K             300.00
 H1, KJ/KG         141.58
 M1, (1/n)         31.463
 GAMMA1            1.3509
 SON VEL1,M/SEC     327.3

 BURNED GAS

 P, BAR            17.586
 T, K             2468.03
 RHO, KG/CU M    2.1986 0
 H, KJ/KG         1176.25
 U, KJ/KG          376.36
 G, KJ/KG        -22191.4
 S, KJ/(KG)(K)     9.4681

 M, (1/n)          25.654
 (dLV/dLP)t      -1.00044
 (dLV/dLT)p        1.0099
 Cp, KJ/(KG)(K)    1.5545
 GAMMAs            1.2694
 SON VEL,M/SEC     1007.6

 DETONATION PARAMETERS

 P/P1              17.586
 T/T1               8.227
 M/M1              0.8154
 RHO/RHO1          1.7430
 DET MACH NUMBER   5.3667
 DET VEL,M/SEC     1756.3

 MOLE FRACTIONS

 *C              1.286-12
 *CH             2.048-12
 CH2             4.626-11
 CH3             1.3980-9
 CH2OH           1.736-11
 CH3O            2.744-12
 CH4             4.3785-9
 CH3OH           9.533-12
 *CN             3.3725-9
 CNN             6.405-16
 *CO             2.3899-1
 *CO2            2.0448-2
 COOH            8.4101-8
 C2H             4.385-14
 C2H2,acetylene  3.619-11
 C2H2,vinylidene 2.529-14
 CH2CO,ketene    8.640-11
 O(CH)2O         4.561-14
 HO(CO)2OH       2.720-16
 C2H3,vinyl      6.569-15
 CH3CN           6.390-14
 CH3CO,acetyl    3.111-14
 C2H4            4.466-14
 CH3CHO,ethanal  4.505-15
 CH3COOH         4.087-16
 CNC             1.903-16
 OCCN            3.597-12
 C2N2            1.757-12
 C2O             1.038-11
 C3O2            4.152-13
 *H              1.5154-3
 HCN             3.4703-6
 HCO             9.4269-7
 HCCO            3.734-12
 HNC             3.5521-7
 HNCO            5.1564-7
 HNO             1.2836-8
 HNO2            7.707-11
 HO2             9.455-10
 *H2             8.4654-2
 HCHO,formaldehy 1.4483-7
 HCOOH           6.9458-8
 H2O             4.4212-2
 H2O2            7.770-10
 *N              4.0285-8
 NCO             5.8205-9
 *NH             7.0070-8
 NH2             2.6491-7
 NH3             3.6652-6
 NH2OH           1.590-11
 *NO             2.6367-5
 NO2             1.415-10
 *N2             6.0997-1
 NCN             1.818-13
 N2H2            3.171-11
 N2H4            1.025-14
 N2O             5.4185-9
 N3              6.084-13
 N3H             1.269-12
 *O              1.8610-6
 *OH             1.7425-4
 *O2             3.9963-7
 O3              3.516-16

  * THERMODYNAMIC PROPERTIES FITTED TO 20000.K



