
 *******************************************************************************

         NASA-GLENN CHEMICAL EQUILIBRIUM PROGRAM CEA2, MAY 21, 2004
                   BY  BONNIE MCBRIDE AND SANFORD GORDON
      REFS: NASA RP-1311, PART I, 1994 AND NASA RP-1311, PART II, 1996

 *******************************************************************************



 problem    phi,eq.ratio=3.7,3.8,3.9,4,
       det   t,k=300,  p,bar=1,
 react
   fuel=C6H6 moles=1 t,k=300
   oxid=O2 moles=7.5 t,k=300
 output
      trace=1e-16 siunits short
 end


                     DETONATION PROPERTIES OF AN IDEAL REACTING GAS
 CASE =                

             REACTANT                       MOLES         ENERGY      TEMP
                                                         KJ/KG-MOL      K
 FUEL        C6H6                         1.0000000     83032.119    300.000
 OXIDANT     O2                           7.5000000        54.358    300.000

 O/F=    0.83038  %FUEL= 54.633494  R,EQ.RATIO= 3.700000  PHI,EQ.RATIO= 3.700000

 UNBURNED GAS

 P1, BAR           1.0000
 T1, K             300.00
 H1, KJ/KG         581.52
 M1, (1/n)         47.233
 GAMMA1            1.2153
 SON VEL1,M/SEC     253.3

 BURNED GAS

 P, BAR            41.056
 T, K             2862.39
 RHO, KG/CU M    3.4824 0
 H, KJ/KG         2214.31
 U, KJ/KG         1035.35
 G, KJ/KG        -30653.9
 S, KJ/(KG)(K)    11.4828

 M, (1/n)          20.187
 MW, MOL WT        16.288
 (dLV/dLP)t      -1.00347
 (dLV/dLT)p        1.0502
 Cp, KJ/(KG)(K)    3.1654
 GAMMAs            1.1628
 SON VEL,M/SEC     1170.9

 DETONATION PARAMETERS

 P/P1              41.056
 T/T1               9.541
 M/M1              0.4274
 RHO/RHO1          1.8391
 DET MACH NUMBER   8.4998
 DET VEL,M/SEC     2153.3

 MOLE FRACTIONS

 *C              2.5222-7
 *CH             5.8122-7
 CH2             1.0440-5
 CH3             2.0171-4
 CH2OH           2.2489-9
 CH3O            4.845-10
 CH4             5.0305-4
 CH3OH           1.1912-9
 *CO             4.6168-1
 *CO2            1.7112-5
 COOH            7.731-10
 *C2             1.2784-7
 C2H             4.7058-5
 C2H2,acetylene  1.3254-2
 C2H2,vinylidene 2.9956-5
 CH2CO,ketene    1.3128-5
 O(CH)2O         6.756-12
 C2H3,vinyl      1.2038-5
 CH3CO,acetyl    2.1023-8
 C2H4            5.2544-5
 C2H4O,ethylen-o 2.187-12
 CH3CHO,ethanal  3.3884-9
 CH3COOH         1.564-13
 C2H5            8.3190-8
 C2H6            3.6180-8
 C2H5OH          4.279-13
 CH3OCH3         8.012-15
 C2O             1.4475-6
 *C3             1.3164-6
 C3H3,1-propynl  6.8459-8
 C3H3,2-propynl  5.0317-5
 C3H4,allene     2.6753-6
 C3H4,propyne    5.7783-6
 C3H4,cyclo-     5.4383-8
 C3H5,allyl      6.4536-8
 C3H6,propylene  2.6583-8
 C3H6,cyclo-     1.879-10
 C3H6O,propylox  7.505-16
 C3H6O,acetone   4.466-13
 C3H6O,propanal  5.925-13
 C3H7,n-propyl   1.551-11
 C3H7,i-propyl   9.994-12
 C3H8            6.526-12
 C3O2            5.7504-8
 *C4             2.9141-9
 C4H2,butadiyne  2.2556-4
 C4H4,1,3-cyclo- 7.626-10
 C4H6,butadiene  6.6299-9
 C4H6,1butyne    1.1327-9
 C4H6,2butyne    5.733-10
 C4H6,cyclo-     2.411-11
 C4H8,1-butene   4.390-12
 C4H8,cis2-buten 1.403-12
 C4H8,tr2-butene 1.591-12
 C4H8,isobutene  1.568-12
 C4H8,cyclo-     3.962-15
 C4H9,n-butyl    4.782-15
 C4H9,i-butyl    2.248-15
 C4H9,s-butyl    2.987-15
 C4H9,t-butyl    3.924-16
 C4H10,n-butane  1.252-15
 C4H10,isobutane 3.450-16
 *C5             1.5468-8
 C5H6,1,3cyclo-  1.765-10
 C5H8,cyclo-     5.025-14
 C5H10,1-pentene 5.543-16
 C6H2            4.0595-6
 C6H5,phenyl     9.896-11
 C6H5O,phenoxy   9.405-15
 C6H6            2.927-10
 C6H5OH,phenol   1.114-14
 C7H7,benzyl     1.046-12
 C7H8            2.066-13
 C8H8,styrene    6.924-14
 C10H8,naphthale 3.509-15
 *H              8.0884-3
 HCO             1.6806-5
 HCCO            7.8639-7
 HO2             8.612-15
 *H2             3.2253-1
 HCHO,formaldehy 3.1048-6
 HCOOH           7.447-10
 H2O             8.4945-5
 H2O2            8.661-15
 *O              9.8342-9
 *OH             6.8789-7
 *O2             1.034-12
 C(gr)           1.9315-1

  * THERMODYNAMIC PROPERTIES FITTED TO 20000.K


                     DETONATION PROPERTIES OF AN IDEAL REACTING GAS
 CASE =                

             REACTANT                       MOLES         ENERGY      TEMP
                                                         KJ/KG-MOL      K
 FUEL        C6H6                         1.0000000     83032.119    300.000
 OXIDANT     O2                           7.5000000        54.358    300.000

 O/F=    0.80853  %FUEL= 55.293619  R,EQ.RATIO= 3.800000  PHI,EQ.RATIO= 3.800000

 UNBURNED GAS

 P1, BAR           1.0000
 T1, K             300.00
 H1, KJ/KG         588.53
 M1, (1/n)         47.506
 GAMMA1            1.2135
 SON VEL1,M/SEC     252.4

 BURNED GAS

 P, BAR            40.625
 T, K             2828.69
 RHO, KG/CU M    3.5001 0
 H, KJ/KG         2194.88
 U, KJ/KG         1034.17
 G, KJ/KG        -30167.1
 S, KJ/(KG)(K)    11.4406

 M, (1/n)          20.263
 MW, MOL WT        16.055
 (dLV/dLP)t      -1.00328
 (dLV/dLT)p        1.0464
 Cp, KJ/(KG)(K)    3.1112
 GAMMAs            1.1643
 SON VEL,M/SEC     1162.5

 DETONATION PARAMETERS

 P/P1              40.625
 T/T1               9.429
 M/M1              0.4265
 RHO/RHO1          1.8377
 DET MACH NUMBER   8.4636
 DET VEL,M/SEC     2136.4

 MOLE FRACTIONS

 *C              1.7519-7
 *CH             4.3174-7
 CH2             8.6759-6
 CH3             1.9050-4
 CH2OH           2.1211-9
 CH3O            4.462-10
 CH4             5.3050-4
 CH3OH           1.2378-9
 *CO             4.4846-1
 *CO2            1.7516-5
 COOH            7.277-10
 *C2             8.4380-8
 C2H             3.5544-5
 C2H2,acetylene  1.1922-2
 C2H2,vinylidene 2.4702-5
 CH2CO,ketene    1.2492-5
 O(CH)2O         6.379-12
 C2H3,vinyl      1.0560-5
 CH3CO,acetyl    1.9669-8
 C2H4            5.2359-5
 C2H4O,ethylen-o 2.102-12
 CH3CHO,ethanal  3.4575-9
 CH3COOH         1.662-13
 C2H5            8.0690-8
 C2H6            3.8997-8
 C2H5OH          4.561-13
 CH3OCH3         8.333-15
 C2O             1.1469-6
 *C3             8.7477-7
 C3H3,1-propynl  5.5861-8
 C3H3,2-propynl  4.3346-5
 C3H4,allene     2.4848-6
 C3H4,propyne    5.3872-6
 C3H4,cyclo-     4.8398-8
 C3H5,allyl      6.0891-8
 C3H6,propylene  2.7210-8
 C3H6,cyclo-     1.885-10
 C3H6O,propylox  7.434-16
 C3H6O,acetone   4.730-13
 C3H6O,propanal  6.154-13
 C3H7,n-propyl   1.533-11
 C3H7,i-propyl   9.942-12
 C3H8            7.175-12
 C3O2            5.0690-8
 *C4             1.7410-9
 C4H2,butadiyne  1.8184-4
 C4H4,1,3-cyclo- 6.434-10
 C4H6,butadiene  6.3578-9
 C4H6,1butyne    1.0779-9
 C4H6,2butyne    5.516-10
 C4H6,cyclo-     2.299-11
 C4H8,1-butene   4.585-12
 C4H8,cis2-buten 1.474-12
 C4H8,tr2-butene 1.671-12
 C4H8,isobutene  1.652-12
 C4H8,cyclo-     4.068-15
 C4H9,n-butyl    4.849-15
 C4H9,i-butyl    2.288-15
 C4H9,s-butyl    3.033-15
 C4H9,t-butyl    4.039-16
 C4H10,n-butane  1.403-15
 C4H10,isobutane 3.881-16
 *C5             9.1759-9
 C5H6,1,3cyclo-  1.701-10
 C5H8,cyclo-     5.143-14
 C5H10,1-pentene 5.920-16
 C6H2            2.9311-6
 C6H5,phenyl     8.604-11
 C6H5O,phenoxy   8.638-15
 C6H6            2.903-10
 C6H5OH,phenol   1.106-14
 C7H7,benzyl     9.734-13
 C7H8            2.106-13
 C8H8,styrene    6.739-14
 C10H8,naphthale 3.395-15
 *H              7.1944-3
 HCO             1.5206-5
 HCCO            6.6440-7
 HO2             7.223-15
 *H2             3.2354-1
 HCHO,formaldehy 3.0453-6
 HCOOH           7.615-10
 H2O             8.8825-5
 H2O2            7.866-15
 *O              7.8873-9
 *OH             6.2008-7
 *O2             8.661-13
 C(gr)           2.0765-1

  * THERMODYNAMIC PROPERTIES FITTED TO 20000.K


                     DETONATION PROPERTIES OF AN IDEAL REACTING GAS
 CASE =                

             REACTANT                       MOLES         ENERGY      TEMP
                                                         KJ/KG-MOL      K
 FUEL        C6H6                         1.0000000     83032.119    300.000
 OXIDANT     O2                           7.5000000        54.358    300.000

 O/F=    0.78780  %FUEL= 55.934810  R,EQ.RATIO= 3.900000  PHI,EQ.RATIO= 3.900000

 UNBURNED GAS

 P1, BAR           1.0000
 T1, K             300.00
 H1, KJ/KG         595.33
 M1, (1/n)         47.774
 GAMMA1            1.2118
 SON VEL1,M/SEC     251.5

 BURNED GAS

 P, BAR            40.205
 T, K             2795.71
 RHO, KG/CU M    3.5174 0
 H, KJ/KG         2176.08
 U, KJ/KG         1033.07
 G, KJ/KG        -29693.0
 S, KJ/(KG)(K)    11.3993

 M, (1/n)          20.336
 MW, MOL WT        15.837
 (dLV/dLP)t      -1.00311
 (dLV/dLT)p        1.0430
 Cp, KJ/(KG)(K)    3.0607
 GAMMAs            1.1658
 SON VEL,M/SEC     1154.3

 DETONATION PARAMETERS

 P/P1              40.205
 T/T1               9.319
 M/M1              0.4257
 RHO/RHO1          1.8365
 DET MACH NUMBER   8.4279
 DET VEL,M/SEC     2119.9

 MOLE FRACTIONS

 *C              1.2169-7
 *CH             3.2060-7
 CH2             7.2041-6
 CH3             1.7972-4
 CH2OH           1.9993-9
 CH3O            4.107-10
 CH4             5.5882-4
 CH3OH           1.2851-9
 *CO             4.3603-1
 *CO2            1.7956-5
 COOH            6.855-10
 *C2             5.5689-8
 C2H             2.6836-5
 C2H2,acetylene  1.0718-2
 C2H2,vinylidene 2.0353-5
 CH2CO,ketene    1.1886-5
 O(CH)2O         6.024-12
 C2H3,vinyl      9.2527-6
 CH3CO,acetyl    1.8390-8
 C2H4            5.2099-5
 C2H4O,ethylen-o 2.018-12
 CH3CHO,ethanal  3.5247-9
 CH3COOH         1.765-13
 C2H5            7.8108-8
 C2H6            4.1937-8
 C2H5OH          4.853-13
 CH3OCH3         8.650-15
 C2O             9.0932-7
 *C3             5.8114-7
 C3H3,1-propynl  4.5519-8
 C3H3,2-propynl  3.7294-5
 C3H4,allene     2.3043-6
 C3H4,propyne    5.0145-6
 C3H4,cyclo-     4.3000-8
 C3H5,allyl      5.7336-8
 C3H6,propylene  2.7784-8
 C3H6,cyclo-     1.887-10
 C3H6O,propylox  7.350-16
 C3H6O,acetone   5.000-13
 C3H6O,propanal  6.379-13
 C3H7,n-propyl   1.511-11
 C3H7,i-propyl   9.861-12
 C3H8            7.863-12
 C3O2            4.4737-8
 *C4             1.0398-9
 C4H2,butadiyne  1.4646-4
 C4H4,1,3-cyclo- 5.419-10
 C4H6,butadiene  6.0864-9
 C4H6,1butyne    1.0230-9
 C4H6,2butyne    5.294-10
 C4H6,cyclo-     2.186-11
 C4H8,1-butene   4.772-12
 C4H8,cis2-buten 1.543-12
 C4H8,tr2-butene 1.749-12
 C4H8,isobutene  1.734-12
 C4H8,cyclo-     4.162-15
 C4H9,n-butyl    4.898-15
 C4H9,i-butyl    2.321-15
 C4H9,s-butyl    3.068-15
 C4H9,t-butyl    4.140-16
 C4H10,n-butane  1.565-15
 C4H10,isobutane 4.348-16
 *C5             5.4407-9
 C5H6,1,3cyclo-  1.636-10
 C5H8,cyclo-     5.247-14
 C5H10,1-pentene 6.294-16
 C6H2            2.1140-6
 C6H5,phenyl     7.464-11
 C6H5O,phenoxy   7.921-15
 C6H6            2.872-10
 C6H5OH,phenol   1.096-14
 C7H7,benzyl     9.031-13
 C7H8            2.140-13
 C8H8,styrene    6.533-14
 C10H8,naphthale 3.272-15
 *H              6.3995-3
 HCO             1.3762-5
 HCCO            5.6143-7
 HO2             6.062-15
 *H2             3.2443-1
 HCHO,formaldehy 2.9868-6
 HCOOH           7.791-10
 H2O             9.2894-5
 H2O2            7.147-15
 *O              6.3308-9
 *OH             5.5918-7
 *O2             7.267-13
 C(gr)           2.2123-1

  * THERMODYNAMIC PROPERTIES FITTED TO 20000.K


                     DETONATION PROPERTIES OF AN IDEAL REACTING GAS
 CASE =                

             REACTANT                       MOLES         ENERGY      TEMP
                                                         KJ/KG-MOL      K
 FUEL        C6H6                         1.0000000     83032.119    300.000
 OXIDANT     O2                           7.5000000        54.358    300.000

 O/F=    0.76810  %FUEL= 56.557868  R,EQ.RATIO= 4.000000  PHI,EQ.RATIO= 4.000000

 UNBURNED GAS

 P1, BAR           1.0000
 T1, K             300.00
 H1, KJ/KG         601.94
 M1, (1/n)         48.038
 GAMMA1            1.2102
 SON VEL1,M/SEC     250.7

 BURNED GAS

 P, BAR            39.794
 T, K             2763.46
 RHO, KG/CU M    3.5345 0
 H, KJ/KG         2157.90
 U, KJ/KG         1032.04
 G, KJ/KG        -29231.3
 S, KJ/(KG)(K)    11.3587

 M, (1/n)          20.408
 MW, MOL WT        15.633
 (dLV/dLP)t      -1.00296
 (dLV/dLT)p        1.0399
 Cp, KJ/(KG)(K)    3.0138
 GAMMAs            1.1672
 SON VEL,M/SEC     1146.3

 DETONATION PARAMETERS

 P/P1              39.794
 T/T1               9.212
 M/M1              0.4248
 RHO/RHO1          1.8353
 DET MACH NUMBER   8.3925
 DET VEL,M/SEC     2103.8

 MOLE FRACTIONS

 *C              8.4538-8
 *CH             2.3801-7
 CH2             5.9782-6
 CH3             1.6940-4
 CH2OH           1.8834-9
 CH3O            3.779-10
 CH4             5.8807-4
 CH3OH           1.3330-9
 *CO             4.2431-1
 *CO2            1.8434-5
 COOH            6.463-10
 *C2             3.6752-8
 C2H             2.0256-5
 C2H2,acetylene  9.6303-3
 C2H2,vinylidene 1.6758-5
 CH2CO,ketene    1.1308-5
 O(CH)2O         5.692-12
 C2H3,vinyl      8.0988-6
 CH3CO,acetyl    1.7187-8
 C2H4            5.1773-5
 C2H4O,ethylen-o 1.936-12
 CH3CHO,ethanal  3.5900-9
 CH3COOH         1.874-13
 C2H5            7.5472-8
 C2H6            4.5005-8
 C2H5OH          5.154-13
 CH3OCH3         8.963-15
 C2O             7.2141-7
 *C3             3.8600-7
 C3H3,1-propynl  3.7048-8
 C3H3,2-propynl  3.2052-5
 C3H4,allene     2.1338-6
 C3H4,propyne    4.6610-6
 C3H4,cyclo-     3.8148-8
 C3H5,allyl      5.3892-8
 C3H6,propylene  2.8308-8
 C3H6,cyclo-     1.886-10
 C3H6O,propylox  7.254-16
 C3H6O,acetone   5.276-13
 C3H6O,propanal  6.601-13
 C3H7,n-propyl   1.485-11
 C3H7,i-propyl   9.755-12
 C3H8            8.591-12
 C3O2            3.9529-8
 *C4             6.209-10
 C4H2,butadiyne  1.1788-4
 C4H4,1,3-cyclo- 4.557-10
 C4H6,butadiene  5.8179-9
 C4H6,1butyne    9.687-10
 C4H6,2butyne    5.069-10
 C4H6,cyclo-     2.074-11
 C4H8,1-butene   4.952-12
 C4H8,cis2-buten 1.611-12
 C4H8,tr2-butene 1.826-12
 C4H8,isobutene  1.815-12
 C4H8,cyclo-     4.246-15
 C4H9,n-butyl    4.930-15
 C4H9,i-butyl    2.345-15
 C4H9,s-butyl    3.092-15
 C4H9,t-butyl    4.230-16
 C4H10,n-butane  1.740-15
 C4H10,isobutane 4.853-16
 *C5             3.2249-9
 C5H6,1,3cyclo-  1.570-10
 C5H8,cyclo-     5.337-14
 C5H10,1-pentene 6.665-16
 C6H2            1.5233-6
 C6H5,phenyl     6.462-11
 C6H5O,phenoxy   7.252-15
 C6H6            2.835-10
 C6H5OH,phenol   1.084-14
 C7H7,benzyl     8.355-13
 C7H8            2.167-13
 C8H8,styrene    6.311-14
 C10H8,naphthale 3.143-15
 *H              5.6929-3
 HCO             1.2459-5
 HCCO            4.7453-7
 HO2             5.092-15
 *H2             3.2523-1
 HCHO,formaldehy 2.9294-6
 HCOOH           7.976-10
 H2O             9.7163-5
 H2O2            6.497-15
 *O              5.0857-9
 *OH             5.0448-7
 *O2             6.105-13
 C(gr)           2.3397-1

  * THERMODYNAMIC PROPERTIES FITTED TO 20000.K



