
 *******************************************************************************

         NASA-GLENN CHEMICAL EQUILIBRIUM PROGRAM CEA2, MAY 21, 2004
                   BY  BONNIE MCBRIDE AND SANFORD GORDON
      REFS: NASA RP-1311, PART I, 1994 AND NASA RP-1311, PART II, 1996

 *******************************************************************************



 problem    phi,eq.ratio=2.1,2.2,2.3,2.4,2.5,2.6,2.7,2.8,2.9,3,3.1,3.2,3.3,3.4,3.
 5,3.6,
       det   t,k=300,  p,bar=1,
 react
   fuel=C8H18,isooctane moles=1 t,k=300
   oxid=O2 moles=12.5 t,k=300
 output
      trace=1e-16 siunits short
 end


                     DETONATION PROPERTIES OF AN IDEAL REACTING GAS
 CASE =                

             REACTANT                       MOLES         ENERGY      TEMP
                                                         KJ/KG-MOL      K
 FUEL        C8H18,isooctane              1.0000000   -223660.458    300.000
 OXIDANT     O2                          12.5000000        54.358    300.000

 O/F=    1.66744  %FUEL= 37.489147  R,EQ.RATIO= 2.100000  PHI,EQ.RATIO= 2.100000

 UNBURNED GAS

 P1, BAR           1.0000
 T1, K             300.00
 H1, KJ/KG        -732.98
 M1, (1/n)         43.826
 GAMMA1            1.1885
 SON VEL1,M/SEC     260.1

 BURNED GAS

 P, BAR            54.039
 T, K             3510.49
 RHO, KG/CU M    3.2168 0
 H, KJ/KG         1600.78
 U, KJ/KG         -79.136
 G, KJ/KG        -45943.2
 S, KJ/(KG)(K)    13.5434

 M, (1/n)          17.375
 (dLV/dLP)t      -1.01576
 (dLV/dLT)p        1.2628
 Cp, KJ/(KG)(K)    4.5068
 GAMMAs            1.1814
 SON VEL,M/SEC     1408.8

 DETONATION PARAMETERS

 P/P1              54.039
 T/T1              11.702
 M/M1              0.3964
 RHO/RHO1          1.8308
 DET MACH NUMBER   9.9168
 DET VEL,M/SEC     2579.2

 MOLE FRACTIONS

 *C              1.0094-8
 *CH             8.9881-9
 CH2             3.0720-8
 CH3             8.9755-8
 CH2OH           4.2738-9
 CH3O            1.3588-9
 CH4             4.6200-8
 CH3OH           5.597-10
 CH3OOH          8.094-15
 *CO             4.2620-1
 *CO2            2.9919-2
 COOH            5.4009-6
 *C2             1.894-12
 C2H             9.502-11
 C2H2,acetylene  1.9665-9
 C2H2,vinylidene 1.679-11
 CH2CO,ketene    3.4100-9
 O(CH)2O         8.377-12
 HO(CO)2OH       6.006-14
 C2H3,vinyl      2.852-12
 CH3CO,acetyl    7.840-12
 C2H4            1.908-12
 C2H4O,ethylen-o 5.914-16
 CH3CHO,ethanal  3.594-13
 CH3COOH         3.763-14
 OHCH2COOH       1.578-15
 C2H5            5.014-15
 C2H6            4.690-16
 C2O             5.3833-9
 *C3             2.928-15
 C3H3,2-propynl  2.687-15
 C3O2            2.934-11
 *H              4.5551-2
 HCO             5.0993-5
 HCCO            1.1746-9
 HO2             2.1380-6
 *H2             3.0577-1
 HCHO,formaldehy 2.9693-6
 HCOOH           1.5849-6
 H2O             1.7804-1
 H2O2            6.8095-7
 *O              1.0601-3
 *OH             1.3149-2
 *O2             2.3727-4
 O3              1.021-10

  * THERMODYNAMIC PROPERTIES FITTED TO 20000.K


                     DETONATION PROPERTIES OF AN IDEAL REACTING GAS
 CASE =                

             REACTANT                       MOLES         ENERGY      TEMP
                                                         KJ/KG-MOL      K
 FUEL        C8H18,isooctane              1.0000000   -223660.458    300.000
 OXIDANT     O2                          12.5000000        54.358    300.000

 O/F=    1.59165  %FUEL= 38.585517  R,EQ.RATIO= 2.200000  PHI,EQ.RATIO= 2.200000

 UNBURNED GAS

 P1, BAR           1.0000
 T1, K             300.00
 H1, KJ/KG        -754.46
 M1, (1/n)         44.305
 GAMMA1            1.1846
 SON VEL1,M/SEC     258.3

 BURNED GAS

 P, BAR            54.082
 T, K             3411.95
 RHO, KG/CU M    3.2409 0
 H, KJ/KG         1558.71
 U, KJ/KG         -110.03
 G, KJ/KG        -44988.7
 S, KJ/(KG)(K)    13.6424

 M, (1/n)          17.000
 (dLV/dLP)t      -1.01210
 (dLV/dLT)p        1.2053
 Cp, KJ/(KG)(K)    4.1322
 GAMMAs            1.1903
 SON VEL,M/SEC     1409.3

 DETONATION PARAMETERS

 P/P1              54.082
 T/T1              11.373
 M/M1              0.3837
 RHO/RHO1          1.8246
 DET MACH NUMBER   9.9572
 DET VEL,M/SEC     2571.5

 MOLE FRACTIONS

 *C              7.0481-9
 *CH             7.4179-9
 CH2             3.2848-8
 CH3             1.2779-7
 CH2OH           4.5578-9
 CH3O            1.3757-9
 CH4             8.3776-8
 CH3OH           7.455-10
 CH3OOH          6.348-15
 *CO             4.3408-1
 *CO2            2.5262-2
 COOH            4.0032-6
 *C2             1.693-12
 C2H             1.146-10
 C2H2,acetylene  3.4616-9
 C2H2,vinylidene 2.500-11
 CH2CO,ketene    5.0378-9
 O(CH)2O         9.128-12
 HO(CO)2OH       4.329-14
 C2H3,vinyl      4.958-12
 CH3CO,acetyl    1.157-11
 C2H4            4.406-12
 C2H4O,ethylen-o 9.509-16
 CH3CHO,ethanal  6.518-13
 CH3COOH         5.532-14
 OHCH2COOH       1.670-15
 C2H5            1.137-14
 C2H6            1.353-15
 C2O             5.1645-9
 *C3             3.763-15
 C3H3,2-propynl  6.362-15
 C3H4,allene     1.394-16
 C3H4,propyne    2.859-16
 C3O2            3.679-11
 *H              3.7926-2
 HCO             4.6719-5
 HCCO            1.3266-9
 HO2             8.9100-7
 *H2             3.3488-1
 HCHO,formaldehy 3.2978-6
 HCOOH           1.4303-6
 H2O             1.5873-1
 H2O2            3.4419-7
 *O              5.2105-4
 *OH             8.4460-3
 *O2             9.5398-5
 O3              2.168-11

  * THERMODYNAMIC PROPERTIES FITTED TO 20000.K


                     DETONATION PROPERTIES OF AN IDEAL REACTING GAS
 CASE =                

             REACTANT                       MOLES         ENERGY      TEMP
                                                         KJ/KG-MOL      K
 FUEL        C8H18,isooctane              1.0000000   -223660.458    300.000
 OXIDANT     O2                          12.5000000        54.358    300.000

 O/F=    1.52244  %FUEL= 39.644092  R,EQ.RATIO= 2.300000  PHI,EQ.RATIO= 2.300000

 UNBURNED GAS

 P1, BAR           1.0000
 T1, K             300.00
 H1, KJ/KG        -775.21
 M1, (1/n)         44.778
 GAMMA1            1.1809
 SON VEL1,M/SEC     256.5

 BURNED GAS

 P, BAR            53.902
 T, K             3306.07
 RHO, KG/CU M    3.2635 0
 H, KJ/KG         1508.76
 U, KJ/KG         -142.89
 G, KJ/KG        -43885.8
 S, KJ/(KG)(K)    13.7307

 M, (1/n)          16.643
 (dLV/dLP)t      -1.00913
 (dLV/dLT)p        1.1582
 Cp, KJ/(KG)(K)    3.8149
 GAMMAs            1.1998
 SON VEL,M/SEC     1407.7

 DETONATION PARAMETERS

 P/P1              53.902
 T/T1              11.020
 M/M1              0.3717
 RHO/RHO1          1.8180
 DET MACH NUMBER   9.9779
 DET VEL,M/SEC     2559.2

 MOLE FRACTIONS

 *C              4.5528-9
 *CH             5.7202-9
 CH2             3.3557-8
 CH3             1.7859-7
 CH2OH           4.6818-9
 CH3O            1.3330-9
 CH4             1.5253-7
 CH3OH           9.744-10
 CH3OOH          4.636-15
 *CO             4.4084-1
 *CO2            2.1191-2
 COOH            2.8544-6
 *C2             1.405-12
 C2H             1.321-10
 C2H2,acetylene  6.0586-9
 C2H2,vinylidene 3.611-11
 CH2CO,ketene    7.3794-9
 O(CH)2O         9.662-12
 HO(CO)2OH       2.991-14
 C2H3,vinyl      8.433-12
 CH3CO,acetyl    1.670-11
 C2H4            1.023-11
 C2H4O,ethylen-o 1.494-15
 CH3CHO,ethanal  1.175-12
 CH3COOH         8.024-14
 OHCH2COOH       1.703-15
 C2H5            2.548-14
 C2H6            3.939-15
 C2H5OH          1.227-16
 C2O             4.7511-9
 *C3             4.576-15
 C3H3,2-propynl  1.493-14
 C3H4,allene     3.967-16
 C3H4,propyne    8.209-16
 C3O2            4.554-11
 *H              3.0485-2
 HCO             4.1478-5
 HCCO            1.4496-9
 HO2             3.3995-7
 *H2             3.6291-1
 HCHO,formaldehy 3.5984-6
 HCOOH           1.2597-6
 H2O             1.3908-1
 H2O2            1.6142-7
 *O              2.3792-4
 *OH             5.1609-3
 *O2             3.5418-5
 O3              3.985-12

  * THERMODYNAMIC PROPERTIES FITTED TO 20000.K


                     DETONATION PROPERTIES OF AN IDEAL REACTING GAS
 CASE =                

             REACTANT                       MOLES         ENERGY      TEMP
                                                         KJ/KG-MOL      K
 FUEL        C8H18,isooctane              1.0000000   -223660.458    300.000
 OXIDANT     O2                          12.5000000        54.358    300.000

 O/F=    1.45901  %FUEL= 40.666792  R,EQ.RATIO= 2.400000  PHI,EQ.RATIO= 2.400000

 UNBURNED GAS

 P1, BAR           1.0000
 T1, K             300.00
 H1, KJ/KG        -795.25
 M1, (1/n)         45.244
 GAMMA1            1.1774
 SON VEL1,M/SEC     254.8

 BURNED GAS

 P, BAR            53.504
 T, K             3193.75
 RHO, KG/CU M    3.2846 0
 H, KJ/KG         1451.31
 U, KJ/KG         -177.62
 G, KJ/KG        -42649.2
 S, KJ/(KG)(K)    13.8084

 M, (1/n)          16.302
 (dLV/dLP)t      -1.00674
 (dLV/dLT)p        1.1197
 Cp, KJ/(KG)(K)    3.5447
 GAMMAs            1.2102
 SON VEL,M/SEC     1404.0

 DETONATION PARAMETERS

 P/P1              53.504
 T/T1              10.646
 M/M1              0.3603
 RHO/RHO1          1.8109
 DET MACH NUMBER   9.9790
 DET VEL,M/SEC     2542.5

 MOLE FRACTIONS

 *C              2.7130-9
 *CH             4.1172-9
 CH2             3.2806-8
 CH3             2.4613-7
 CH2OH           4.6361-9
 CH3O            1.2369-9
 CH4             2.8107-7
 CH3OH           1.2537-9
 CH3OOH          3.144-15
 *CO             4.4662-1
 *CO2            1.7625-2
 COOH            1.9510-6
 *C2             1.083-12
 C2H             1.460-10
 C2H2,acetylene  1.0633-8
 C2H2,vinylidene 5.094-11
 CH2CO,ketene    1.0780-8
 O(CH)2O         9.952-12
 HO(CO)2OH       1.975-14
 C2H3,vinyl      1.415-11
 CH3CO,acetyl    2.372-11
 C2H4            2.414-11
 C2H4O,ethylen-o 2.310-15
 CH3CHO,ethanal  2.120-12
 CH3COOH         1.154-13
 OHCH2COOH       1.676-15
 C2H5            5.711-14
 C2H6            1.174-14
 C2H5OH          2.560-16
 C2O             4.1961-9
 *C3             5.297-15
 C3H3,2-propynl  3.515-14
 C3H4,allene     1.150-15
 C3H4,propyne    2.403-15
 C3O2            5.590-11
 C4H2,butadiyne  1.205-16
 *H              2.3609-2
 HCO             3.5659-5
 HCCO            1.5371-9
 HO2             1.1744-7
 *H2             3.8949-1
 HCHO,formaldehy 3.8631-6
 HCOOH           1.0813-6
 H2O             1.1952-1
 H2O2            6.9617-8
 *O              1.0009-4
 *OH             2.9829-3
 *O2             1.2004-5
 O3              6.236-13

  * THERMODYNAMIC PROPERTIES FITTED TO 20000.K


                     DETONATION PROPERTIES OF AN IDEAL REACTING GAS
 CASE =                

             REACTANT                       MOLES         ENERGY      TEMP
                                                         KJ/KG-MOL      K
 FUEL        C8H18,isooctane              1.0000000   -223660.458    300.000
 OXIDANT     O2                          12.5000000        54.358    300.000

 O/F=    1.40065  %FUEL= 41.655412  R,EQ.RATIO= 2.500000  PHI,EQ.RATIO= 2.500000

 UNBURNED GAS

 P1, BAR           1.0000
 T1, K             300.00
 H1, KJ/KG        -814.63
 M1, (1/n)         45.704
 GAMMA1            1.1741
 SON VEL1,M/SEC     253.1

 BURNED GAS

 P, BAR            52.893
 T, K             3075.75
 RHO, KG/CU M    3.3042 0
 H, KJ/KG         1386.69
 U, KJ/KG         -214.08
 G, KJ/KG        -41291.4
 S, KJ/(KG)(K)    13.8756

 M, (1/n)          15.976
 (dLV/dLP)t      -1.00483
 (dLV/dLT)p        1.0884
 Cp, KJ/(KG)(K)    3.3145
 GAMMAs            1.2212
 SON VEL,M/SEC     1398.2

 DETONATION PARAMETERS

 P/P1              52.893
 T/T1              10.253
 M/M1              0.3495
 RHO/RHO1          1.8033
 DET MACH NUMBER   9.9605
 DET VEL,M/SEC     2521.4

 MOLE FRACTIONS

 *C              1.4857-9
 *CH             2.7621-9
 CH2             3.0756-8
 CH3             3.3667-7
 CH2OH           4.4277-9
 CH3O            1.0991-9
 CH4             5.2983-7
 CH3OH           1.5944-9
 CH3OOH          1.969-15
 *CO             4.5155-1
 *CO2            1.4481-2
 COOH            1.2708-6
 *C2             7.765-13
 C2H             1.557-10
 C2H2,acetylene  1.8933-8
 C2H2,vinylidene 7.079-11
 CH2CO,ketene    1.5822-8
 O(CH)2O         9.992-12
 HO(CO)2OH       1.237-14
 C2H3,vinyl      2.370-11
 CH3CO,acetyl    3.340-11
 C2H4            5.883-11
 C2H4O,ethylen-o 3.545-15
 CH3CHO,ethanal  3.872-12
 CH3COOH         1.657-13
 OHCH2COOH       1.592-15
 C2H5            1.300-13
 C2H6            3.652-14
 C2H5OH          5.398-16
 C2O             3.5630-9
 *C3             5.885-15
 C3H3,1-propynl  1.577-16
 C3H3,2-propynl  8.454-14
 C3H4,allene     3.463-15
 C3H4,propyne    7.317-15
 C3O2            6.844-11
 C4H2,butadiyne  3.590-16
 *H              1.7564-2
 HCO             2.9643-5
 HCCO            1.5871-9
 HO2             3.6152-8
 *H2             4.1434-1
 HCHO,formaldehy 4.0865-6
 HCOOH           9.0192-7
 H2O             1.0037-1
 H2O2            2.7240-8
 *O              3.8320-5
 *OH             1.6173-3
 *O2             3.6536-6
 O3              8.091-14

  * THERMODYNAMIC PROPERTIES FITTED TO 20000.K


                     DETONATION PROPERTIES OF AN IDEAL REACTING GAS
 CASE =                

             REACTANT                       MOLES         ENERGY      TEMP
                                                         KJ/KG-MOL      K
 FUEL        C8H18,isooctane              1.0000000   -223660.458    300.000
 OXIDANT     O2                          12.5000000        54.358    300.000

 O/F=    1.34678  %FUEL= 42.611626  R,EQ.RATIO= 2.600000  PHI,EQ.RATIO= 2.600000

 UNBURNED GAS

 P1, BAR           1.0000
 T1, K             300.00
 H1, KJ/KG        -833.36
 M1, (1/n)         46.158
 GAMMA1            1.1709
 SON VEL1,M/SEC     251.6

 BURNED GAS

 P, BAR            52.074
 T, K             2952.76
 RHO, KG/CU M    3.3224 0
 H, KJ/KG         1315.27
 U, KJ/KG         -252.09
 G, KJ/KG        -39824.2
 S, KJ/(KG)(K)    13.9326

 M, (1/n)          15.664
 (dLV/dLP)t      -1.00335
 (dLV/dLT)p        1.0633
 Cp, KJ/(KG)(K)    3.1201
 GAMMAs            1.2330
 SON VEL,M/SEC     1390.2

 DETONATION PARAMETERS

 P/P1              52.074
 T/T1               9.843
 M/M1              0.3394
 RHO/RHO1          1.7954
 DET MACH NUMBER   9.9222
 DET VEL,M/SEC     2495.9

 MOLE FRACTIONS

 *C              7.451-10
 *CH             1.7259-9
 CH2             2.7753-8
 CH3             4.6111-7
 CH2OH           4.0792-9
 CH3O            9.350-10
 CH4             1.0359-6
 CH3OH           2.0130-9
 CH3OOH          1.129-15
 *CO             4.5574-1
 *CO2            1.1684-2
 COOH            7.8191-7
 *C2             5.204-13
 C2H             1.619-10
 C2H2,acetylene  3.4778-8
 C2H2,vinylidene 9.820-11
 CH2CO,ketene    2.3576-8
 O(CH)2O         9.793-12
 HO(CO)2OH       7.259-15
 C2H3,vinyl      4.022-11
 CH3CO,acetyl    4.712-11
 C2H4            1.512-10
 C2H4O,ethylen-o 5.463-15
 CH3CHO,ethanal  7.257-12
 CH3COOH         2.388-13
 OHCH2COOH       1.455-15
 C2H5            3.064-13
 C2H6            1.214-13
 C2H5OH          1.169-15
 C2O             2.9168-9
 *C3             6.365-15
 C3H3,1-propynl  3.331-16
 C3H3,2-propynl  2.130-13
 C3H4,allene     1.115-14
 C3H4,propyne    2.386-14
 C3H4,cyclo-     2.530-16
 C3H5,allyl      3.087-16
 C3H6,propylene  1.232-16
 C3O2            8.429-11
 C4H2,butadiyne  1.147-15
 *H              1.2508-2
 HCO             2.3780-5
 HCCO            1.6046-9
 HO2             9.6905-9
 *H2             4.3733-1
 HCHO,formaldehy 4.2657-6
 HCOOH           7.2722-7
 H2O             8.1879-2
 H2O2            9.4820-9
 *O              1.3137-5
 *OH             8.1279-4
 *O2             9.7556-7
 O3              8.390-15

  * THERMODYNAMIC PROPERTIES FITTED TO 20000.K


                     DETONATION PROPERTIES OF AN IDEAL REACTING GAS
 CASE =                

             REACTANT                       MOLES         ENERGY      TEMP
                                                         KJ/KG-MOL      K
 FUEL        C8H18,isooctane              1.0000000   -223660.458    300.000
 OXIDANT     O2                          12.5000000        54.358    300.000

 O/F=    1.29690  %FUEL= 43.537003  R,EQ.RATIO= 2.700000  PHI,EQ.RATIO= 2.700000

 UNBURNED GAS

 P1, BAR           1.0000
 T1, K             300.00
 H1, KJ/KG        -851.50
 M1, (1/n)         46.605
 GAMMA1            1.1679
 SON VEL1,M/SEC     250.0

 BURNED GAS

 P, BAR            51.058
 T, K             2825.52
 RHO, KG/CU M    3.3394 0
 H, KJ/KG         1237.55
 U, KJ/KG         -291.39
 G, KJ/KG        -38260.6
 S, KJ/(KG)(K)    13.9791

 M, (1/n)          15.365
 (dLV/dLP)t      -1.00224
 (dLV/dLT)p        1.0437
 Cp, KJ/(KG)(K)    2.9588
 GAMMAs            1.2453
 SON VEL,M/SEC     1379.8

 DETONATION PARAMETERS

 P/P1              51.058
 T/T1               9.418
 M/M1              0.3297
 RHO/RHO1          1.7873
 DET MACH NUMBER   9.8640
 DET VEL,M/SEC     2466.2

 MOLE FRACTIONS

 *C              3.420-10
 *CH             1.0071-9
 CH2             2.4283-8
 CH3             6.4079-7
 CH2OH           3.6253-9
 CH3O            7.610-10
 CH4             2.1409-6
 CH3OH           2.5350-9
 CH3OOH          5.845-16
 *CO             4.5932-1
 *CO2            9.1622-3
 COOH            4.4830-7
 *C2             3.297-13
 C2H             1.670-10
 C2H2,acetylene  6.7620-8
 C2H2,vinylidene 1.389-10
 CH2CO,ketene    3.6198-8
 O(CH)2O         9.386-12
 HO(CO)2OH       3.912-15
 C2H3,vinyl      7.094-11
 CH3CO,acetyl    6.756-11
 C2H4            4.227-10
 C2H4O,ethylen-o 8.594-15
 CH3CHO,ethanal  1.422-11
 CH3COOH         3.485-13
 OHCH2COOH       1.274-15
 C2H5            7.714-13
 C2H6            4.471-13
 C2H5OH          2.654-15
 C2O             2.3171-9
 *C3             6.878-15
 C3H3,1-propynl  7.495-16
 C3H3,2-propynl  5.846-13
 C3H4,allene     4.007-14
 C3H4,propyne    8.691-14
 C3H4,cyclo-     7.773-16
 C3H5,allyl      1.168-15
 C3H6,propylene  6.243-16
 C3O2            1.057-10
 C4H2,butadiyne  4.128-15
 *H              8.4885-3
 HCO             1.8366-5
 HCCO            1.6034-9
 HO2             2.1885-9
 *H2             4.5841-1
 HCHO,formaldehy 4.4004-6
 HCOOH           5.6141-7
 H2O             6.4210-2
 H2O2            2.8512-9
 *O              3.9442-6
 *OH             3.7226-4
 *O2             2.2101-7
 O3              6.599-16

  * THERMODYNAMIC PROPERTIES FITTED TO 20000.K


                     DETONATION PROPERTIES OF AN IDEAL REACTING GAS
 CASE =                

             REACTANT                       MOLES         ENERGY      TEMP
                                                         KJ/KG-MOL      K
 FUEL        C8H18,isooctane              1.0000000   -223660.458    300.000
 OXIDANT     O2                          12.5000000        54.358    300.000

 O/F=    1.25058  %FUEL= 44.433011  R,EQ.RATIO= 2.800000  PHI,EQ.RATIO= 2.800000

 UNBURNED GAS

 P1, BAR           1.0000
 T1, K             300.00
 H1, KJ/KG        -869.06
 M1, (1/n)         47.047
 GAMMA1            1.1651
 SON VEL1,M/SEC     248.5

 BURNED GAS

 P, BAR            49.862
 T, K             2694.97
 RHO, KG/CU M    3.3557 0
 H, KJ/KG         1154.25
 U, KJ/KG         -331.63
 G, KJ/KG        -36615.4
 S, KJ/(KG)(K)    14.0148

 M, (1/n)          15.080
 (dLV/dLP)t      -1.00143
 (dLV/dLT)p        1.0289
 Cp, KJ/(KG)(K)    2.8289
 GAMMAs            1.2577
 SON VEL,M/SEC     1367.0

 DETONATION PARAMETERS

 P/P1              49.862
 T/T1               8.983
 M/M1              0.3205
 RHO/RHO1          1.7791
 DET MACH NUMBER   9.7859
 DET VEL,M/SEC     2432.1

 MOLE FRACTIONS

 *C              1.448-10
 *CH             5.548-10
 CH2             2.0940-8
 CH3             9.2394-7
 CH2OH           3.1080-9
 CH3O            5.922-10
 CH4             4.8119-6
 CH3OH           3.1999-9
 CH3OOH          2.674-16
 *CO             4.6240-1
 *CO2            6.8496-3
 COOH            2.3411-7
 *C2             2.033-13
 C2H             1.771-10
 C2H2,acetylene  1.4542-7
 C2H2,vinylidene 2.087-10
 CH2CO,ketene    5.8669-8
 O(CH)2O         8.811-12
 HO(CO)2OH       1.863-15
 C2H3,vinyl      1.357-10
 CH3CO,acetyl    1.008-10
 C2H4            1.3499-9
 C2H4O,ethylen-o 1.416-14
 CH3CHO,ethanal  2.994-11
 CH3COOH         5.189-13
 OHCH2COOH       1.051-15
 C2H5            2.176-12
 C2H6            1.923-12
 C2H5OH          6.523-15
 CH3OCH3         1.074-16
 C2O             1.8139-9
 *C3             7.829-15
 C3H3,1-propynl  1.914-15
 C3H3,2-propynl  1.866-12
 C3H4,allene     1.723-13
 C3H4,propyne    3.794-13
 C3H4,cyclo-     2.803-15
 C3H5,allyl      5.289-15
 C3H6,propylene  3.902-15
 C3O2            1.381-10
 C4H2,butadiyne  1.827-14
 *H              5.4655-3
 HCO             1.3621-5
 HCCO            1.6130-9
 HO2             3.954-10
 *H2             4.7763-1
 HCHO,formaldehy 4.4931-6
 HCOOH           4.0737-7
 H2O             4.7473-2
 H2O2            7.060-10
 *O              1.0048-6
 *OH             1.5132-4
 *O2             4.0327-8

  * THERMODYNAMIC PROPERTIES FITTED TO 20000.K


                     DETONATION PROPERTIES OF AN IDEAL REACTING GAS
 CASE =                

             REACTANT                       MOLES         ENERGY      TEMP
                                                         KJ/KG-MOL      K
 FUEL        C8H18,isooctane              1.0000000   -223660.458    300.000
 OXIDANT     O2                          12.5000000        54.358    300.000

 O/F=    1.20746  %FUEL= 45.301025  R,EQ.RATIO= 2.900000  PHI,EQ.RATIO= 2.900000

 UNBURNED GAS

 P1, BAR           1.0000
 T1, K             300.00
 H1, KJ/KG        -886.07
 M1, (1/n)         47.484
 GAMMA1            1.1623
 SON VEL1,M/SEC     247.1

 BURNED GAS

 P, BAR            48.507
 T, K             2562.23
 RHO, KG/CU M    3.3717 0
 H, KJ/KG         1066.23
 U, KJ/KG         -372.42
 G, KJ/KG        -34905.8
 S, KJ/(KG)(K)    14.0393

 M, (1/n)          14.808
 (dLV/dLP)t      -1.00091
 (dLV/dLT)p        1.0184
 Cp, KJ/(KG)(K)    2.7283
 GAMMAs            1.2699
 SON VEL,M/SEC     1351.6

 DETONATION PARAMETERS

 P/P1              48.507
 T/T1               8.541
 M/M1              0.3119
 RHO/RHO1          1.7712
 DET MACH NUMBER   9.6885
 DET VEL,M/SEC     2394.0

 MOLE FRACTIONS

 *C              5.825-11
 *CH             2.984-10
 CH2             1.8497-8
 CH3             1.4456-6
 CH2OH           2.5703-9
 CH3O            4.404-10
 CH4             1.2375-5
 CH3OH           4.0695-9
 CH3OOH          1.033-16
 *CO             4.6510-1
 *CO2            4.6828-3
 COOH            1.0645-7
 *C2             1.314-13
 C2H             2.095-10
 C2H2,acetylene  3.7803-7
 C2H2,vinylidene 3.619-10
 CH2CO,ketene    1.0518-7
 O(CH)2O         8.119-12
 HO(CO)2OH       7.217-16
 C2H3,vinyl      3.076-10
 CH3CO,acetyl    1.642-10
 C2H4            5.4121-9
 C2H4O,ethylen-o 2.564-14
 CH3CHO,ethanal  7.134-11
 CH3COOH         7.951-13
 OHCH2COOH       7.890-16
 C2H5            7.548-12
 C2H6            1.066-11
 C2H5OH          1.830-14
 CH3OCH3         2.690-16
 C2O             1.4532-9
 *C3             1.059-14
 C3H3,1-propynl  6.321-15
 C3H3,2-propynl  7.925-12
 C3H4,allene     1.017-12
 C3H4,propyne    2.279-12
 C3H4,cyclo-     1.358-14
 C3H5,allyl      3.297-14
 C3H6,propylene  3.472-14
 C3H6,cyclo-     2.026-16
 C3H6O,acetone   1.320-16
 C3H6O,propanal  1.447-16
 C3O2            1.964-10
 C4H2,butadiyne  1.187-13
 *H              3.3234-3
 HCO             9.6760-6
 HCCO            1.7020-9
 HO2             5.190-11
 *H2             4.9508-1
 HCHO,formaldehy 4.5484-6
 HCOOH           2.6675-7
 H2O             3.1730-2
 H2O2            1.312-10
 *O              2.0570-7
 *OH             5.1989-5
 *O2             5.3786-9

  * THERMODYNAMIC PROPERTIES FITTED TO 20000.K


                     DETONATION PROPERTIES OF AN IDEAL REACTING GAS
 CASE =                

             REACTANT                       MOLES         ENERGY      TEMP
                                                         KJ/KG-MOL      K
 FUEL        C8H18,isooctane              1.0000000   -223660.458    300.000
 OXIDANT     O2                          12.5000000        54.358    300.000

 O/F=    1.16721  %FUEL= 46.142338  R,EQ.RATIO= 3.000000  PHI,EQ.RATIO= 3.000000

 UNBURNED GAS

 P1, BAR           1.0000
 T1, K             300.00
 H1, KJ/KG        -902.56
 M1, (1/n)         47.914
 GAMMA1            1.1597
 SON VEL1,M/SEC     245.7

 BURNED GAS

 P, BAR            47.020
 T, K             2428.59
 RHO, KG/CU M    3.3880 0
 H, KJ/KG          974.46
 U, KJ/KG         -413.37
 G, KJ/KG        -33150.6
 S, KJ/(KG)(K)    14.0514

 M, (1/n)          14.550
 (dLV/dLP)t      -1.00066
 (dLV/dLT)p        1.0117
 Cp, KJ/(KG)(K)    2.6551
 GAMMAs            1.2815
 SON VEL,M/SEC     1333.6

 DETONATION PARAMETERS

 P/P1              47.020
 T/T1               8.095
 M/M1              0.3037
 RHO/RHO1          1.7637
 DET MACH NUMBER   9.5726
 DET VEL,M/SEC     2352.1

 MOLE FRACTIONS

 *C              2.482-11
 *CH             1.751-10
 CH2             1.8790-8
 CH3             2.7711-6
 CH2OH           2.0507-9
 CH3O            3.129-10
 CH4             4.1354-5
 CH3OH           5.2389-9
 *CO             4.6752-1
 *CO2            2.6008-3
 COOH            3.7318-8
 *C2             1.118-13
 C2H             3.491-10
 C2H2,acetylene  1.5138-6
 C2H2,vinylidene 9.201-10
 CH2CO,ketene    2.3595-7
 O(CH)2O         7.357-12
 HO(CO)2OH       1.795-16
 C2H3,vinyl      1.0514-9
 CH3CO,acetyl    3.300-10
 C2H4            3.4884-8
 C2H4O,ethylen-o 5.785-14
 CH3CHO,ethanal  2.184-10
 CH3COOH         1.264-12
 OHCH2COOH       4.806-16
 C2H5            4.123-11
 C2H6            9.806-11
 C2H5OH          6.677-14
 CH3OCH3         8.643-16
 C2O             1.3368-9
 *C3             2.415-14
 C3H3,1-propynl  3.878-14
 C3H3,2-propynl  6.437-11
 C3H4,allene     1.190-11
 C3H4,propyne    2.719-11
 C3H4,cyclo-     1.275-13
 C3H5,allyl      4.091-13
 C3H6,propylene  6.382-13
 C3H6,cyclo-     3.374-15
 C3H6O,acetone   1.215-15
 C3H6O,propanal  1.205-15
 C3H7,n-propyl   2.464-16
 C3H7,i-propyl   1.750-16
 C3H8            5.761-16
 C3O2            3.433-10
 C4H2,butadiyne  1.836-12
 C4H6,butadiene  1.235-15
 C4H6,1butyne    1.744-16
 C4H6,2butyne    1.049-16
 *H              1.9004-3
 HCO             6.5685-6
 HCCO            2.1195-9
 HO2             3.856-12
 *H2             5.1088-1
 HCHO,formaldehy 4.5721-6
 HCOOH           1.4017-7
 H2O             1.7024-2
 H2O2            1.432-11
 *O              2.9715-8
 *OH             1.3318-5
 *O2             4.085-10

  * THERMODYNAMIC PROPERTIES FITTED TO 20000.K


                     DETONATION PROPERTIES OF AN IDEAL REACTING GAS
 CASE =                

             REACTANT                       MOLES         ENERGY      TEMP
                                                         KJ/KG-MOL      K
 FUEL        C8H18,isooctane              1.0000000   -223660.458    300.000
 OXIDANT     O2                          12.5000000        54.358    300.000

 O/F=    1.12956  %FUEL= 46.958163  R,EQ.RATIO= 3.100000  PHI,EQ.RATIO= 3.100000

 UNBURNED GAS

 P1, BAR           1.0000
 T1, K             300.00
 H1, KJ/KG        -918.54
 M1, (1/n)         48.339
 GAMMA1            1.1572
 SON VEL1,M/SEC     244.4

 BURNED GAS

 P, BAR            45.440
 T, K             2297.10
 RHO, KG/CU M    3.4055 0
 H, KJ/KG          880.53
 U, KJ/KG         -453.81
 G, KJ/KG        -31387.4
 S, KJ/(KG)(K)    14.0473

 M, (1/n)          14.314
 (dLV/dLP)t      -1.00172
 (dLV/dLT)p        1.0138
 Cp, KJ/(KG)(K)    2.6253
 GAMMAs            1.2914
 SON VEL,M/SEC     1312.7

 DETONATION PARAMETERS

 P/P1              45.440
 T/T1               7.657
 M/M1              0.2961
 RHO/RHO1          1.7573
 DET MACH NUMBER   9.4399
 DET VEL,M/SEC     2306.8

 MOLE FRACTIONS

 *C              2.267-11
 *CH             2.265-10
 CH2             4.4182-8
 CH3             1.3042-5
 CH2OH           1.5821-9
 CH3O            2.132-10
 CH4             3.5863-4
 CH3OH           6.8224-9
 *CO             4.6969-1
 *CO2            5.8600-4
 COOH            5.0550-9
 *C2             5.081-13
 C2H             3.3116-9
 C2H2,acetylene  3.7472-5
 C2H2,vinylidene 1.3802-8
 CH2CO,ketene    1.3269-6
 O(CH)2O         6.573-12
 C2H3,vinyl      2.1773-8
 CH3CO,acetyl    1.6411-9
 C2H4            1.4462-6
 C2H4O,ethylen-o 3.258-13
 CH3CHO,ethanal  1.7170-9
 CH3COOH         2.082-12
 OHCH2COOH       1.189-16
 C2H5            1.4200-9
 C2H6            5.9702-9
 C2H5OH          6.328-13
 CH3OCH3         7.127-15
 C2O             2.8462-9
 *C3             7.533-13
 C3H3,1-propynl  3.559-12
 C3H3,2-propynl  8.0445-9
 C3H4,allene     2.2163-9
 C3H4,propyne    5.1689-9
 C3H4,cyclo-     1.865-11
 C3H5,allyl      8.102-11
 C3H6,propylene  1.938-10
 C3H6,cyclo-     9.212-13
 C3H6O,acetone   7.419-14
 C3H6O,propanal  6.598-14
 C3H7,n-propyl   5.941-14
 C3H7,i-propyl   4.377-14
 C3H8            2.471-13
 C3O2            1.4818-9
 C4H2,butadiyne  1.0887-9
 C4H4,1,3-cyclo- 1.118-14
 C4H6,butadiene  1.831-12
 C4H6,1butyne    2.336-13
 C4H6,2butyne    1.502-13
 C4H6,cyclo-     5.265-15
 C4H8,1-butene   7.387-15
 C4H8,cis2-buten 2.669-15
 C4H8,tr2-butene 3.009-15
 C4H8,isobutene  3.144-15
 C5H6,1,3cyclo-  6.243-15
 C6H2            3.325-14
 C6H6            2.389-15
 *H              1.0261-3
 HCO             4.2746-6
 HCCO            6.2654-9
 HO2             4.084-14
 *H2             5.2462-1
 HCHO,formaldehy 4.5663-6
 HCOOH           2.9549-8
 H2O             3.6599-3
 H2O2            2.303-13
 *O              1.5266-9
 *OH             1.2768-6
 *O2             4.447-12

  * THERMODYNAMIC PROPERTIES FITTED TO 20000.K


                     DETONATION PROPERTIES OF AN IDEAL REACTING GAS
 CASE =                

             REACTANT                       MOLES         ENERGY      TEMP
                                                         KJ/KG-MOL      K
 FUEL        C8H18,isooctane              1.0000000   -223660.458    300.000
 OXIDANT     O2                          12.5000000        54.358    300.000

 O/F=    1.09426  %FUEL= 47.749640  R,EQ.RATIO= 3.200000  PHI,EQ.RATIO= 3.200000

 UNBURNED GAS

 P1, BAR           1.0000
 T1, K             300.00
 H1, KJ/KG        -934.05
 M1, (1/n)         48.759
 GAMMA1            1.1548
 SON VEL1,M/SEC     243.1

 BURNED GAS

 P, BAR            44.525
 T, K             2214.24
 RHO, KG/CU M    3.4542 0
 H, KJ/KG          809.28
 U, KJ/KG         -479.74
 G, KJ/KG        -30229.7
 S, KJ/(KG)(K)    14.0179

 M, (1/n)          14.282
 MW, MOL WT        14.205
 (dLV/dLP)t      -1.00416
 (dLV/dLT)p        1.0238
 Cp, KJ/(KG)(K)    2.7800
 GAMMAs            1.2744
 SON VEL,M/SEC     1281.7

 DETONATION PARAMETERS

 P/P1              44.525
 T/T1               7.381
 M/M1              0.2929
 RHO/RHO1          1.7670
 DET MACH NUMBER   9.3180
 DET VEL,M/SEC     2264.8

 MOLE FRACTIONS

 *C              4.384-11
 *CH             5.547-10
 CH2             1.6279-7
 CH3             7.7340-5
 CH2OH           1.2844-9
 CH3O            1.591-10
 CH4             3.2398-3
 CH3OH           7.9296-9
 *CO             4.6311-1
 *CO2            9.8371-5
 COOH            5.945-10
 *C2             6.180-12
 C2H             6.6774-8
 C2H2,acetylene  1.4605-3
 C2H2,vinylidene 3.8006-7
 CH2CO,ketene    8.8718-6
 O(CH)2O         5.894-12
 C2H3,vinyl      7.4679-7
 CH3CO,acetyl    1.0048-8
 C2H4            7.9887-5
 C2H4O,ethylen-o 2.167-12
 CH3CHO,ethanal  1.4369-8
 CH3COOH         2.831-12
 C2H5            6.8733-8
 C2H6            4.2697-7
 C2H5OH          5.981-12
 CH3OCH3         6.118-14
 C2O             9.8036-9
 *C3             7.193-11
 C3H3,1-propynl  7.095-10
 C3H3,2-propynl  1.9855-6
 C3H4,allene     7.1829-7
 C3H4,propyne    1.6994-6
 C3H4,cyclo-     5.1131-9
 C3H5,allyl      2.7317-8
 C3H6,propylene  8.7463-8
 C3H6,cyclo-     3.864-10
 C3H6O,propylox  1.747-15
 C3H6O,acetone   5.279-12
 C3H6O,propanal  4.355-12
 C3H7,n-propyl   2.276-11
 C3H7,i-propyl   1.720-11
 C3H8            1.405-10
 C3H8O,1propanol 1.699-15
 C3H8O,2propanol 1.484-15
 C3O2            8.2608-9
 *C4             1.215-14
 C4H2,butadiyne  1.6444-6
 C4H4,1,3-cyclo- 1.922-11
 C4H6,butadiene  5.1642-9
 C4H6,1butyne    6.103-10
 C4H6,2butyne    4.114-10
 C4H6,cyclo-     1.396-11
 C4H8,1-butene   2.653-11
 C4H8,cis2-buten 9.808-12
 C4H8,tr2-butene 1.105-11
 C4H8,isobutene  1.167-11
 C4H8,cyclo-     1.611-14
 C4H9,n-butyl    1.480-14
 C4H9,i-butyl    7.677-15
 C4H9,s-butyl    9.541-15
 C4H9,t-butyl    1.742-15
 C4H10,n-butane  4.827-14
 C4H10,isobutane 1.469-14
 *C5             5.235-14
 C5H6,1,3cyclo-  1.336-10
 C5H8,cyclo-     1.890-13
 C5H10,1-pentene 6.455-15
 C6H2            1.9469-9
 C6H5,phenyl     5.495-12
 C6H5O,phenoxy   3.177-15
 C6H6            4.410-10
 C6H5OH,phenol   2.694-14
 C7H7,benzyl     3.513-13
 C7H8            6.849-13
 C8H8,styrene    6.853-14
 C8H10,ethylbenz 2.485-16
 C10H8,naphthale 3.185-15
 *H              6.6202-4
 HCO             3.1098-6
 HCCO            2.6958-8
 HO2             3.973-16
 *H2             5.2526-1
 HCHO,formaldehy 4.4514-6
 HCOOH           4.7035-9
 H2O             5.9413-4
 H2O2            2.979-15
 *O              9.298-11
 *OH             1.1909-7
 *O2             4.427-14
 C(gr)           5.3960-3

  * THERMODYNAMIC PROPERTIES FITTED TO 20000.K


                     DETONATION PROPERTIES OF AN IDEAL REACTING GAS
 CASE =                

             REACTANT                       MOLES         ENERGY      TEMP
                                                         KJ/KG-MOL      K
 FUEL        C8H18,isooctane              1.0000000   -223660.458    300.000
 OXIDANT     O2                          12.5000000        54.358    300.000

 O/F=    1.06110  %FUEL= 48.517845  R,EQ.RATIO= 3.300000  PHI,EQ.RATIO= 3.300000

 UNBURNED GAS

 P1, BAR           1.0000
 T1, K             300.00
 H1, KJ/KG        -949.11
 M1, (1/n)         49.173
 GAMMA1            1.1525
 SON VEL1,M/SEC     241.8

 BURNED GAS

 P, BAR            43.738
 T, K             2156.51
 RHO, KG/CU M    3.4801 0
 H, KJ/KG          748.88
 U, KJ/KG         -507.91
 G, KJ/KG        -29410.3
 S, KJ/(KG)(K)    13.9852

 M, (1/n)          14.267
 MW, MOL WT        13.982
 (dLV/dLP)t      -1.00469
 (dLV/dLT)p        1.0265
 Cp, KJ/(KG)(K)    2.7733
 GAMMAs            1.2767
 SON VEL,M/SEC     1266.7

 DETONATION PARAMETERS

 P/P1              43.738
 T/T1               7.188
 M/M1              0.2901
 RHO/RHO1          1.7653
 DET MACH NUMBER   9.2485
 DET VEL,M/SEC     2236.2

 MOLE FRACTIONS

 *C              1.553-11
 *CH             2.349-10
 CH2             9.3651-8
 CH3             6.3556-5
 CH2OH           1.0888-9
 CH3O            1.268-10
 CH4             3.6551-3
 CH3OH           8.8068-9
 *CO             4.4895-1
 *CO2            1.1572-4
 COOH            5.388-10
 *C2             1.876-12
 C2H             2.9606-8
 C2H2,acetylene  1.0598-3
 C2H2,vinylidene 2.1295-7
 CH2CO,ketene    7.8509-6
 O(CH)2O         5.300-12
 C2H3,vinyl      4.9432-7
 CH3CO,acetyl    8.3606-9
 C2H4            7.5595-5
 C2H4O,ethylen-o 1.924-12
 CH3CHO,ethanal  1.5125-8
 CH3COOH         3.493-12
 C2H5            5.9165-8
 C2H6            4.9285-7
 C2H5OH          6.939-12
 CH3OCH3         6.610-14
 C2O             5.2675-9
 *C3             2.204-11
 C3H3,1-propynl  3.796-10
 C3H3,2-propynl  1.2451-6
 C3H4,allene     5.5339-7
 C3H4,propyne    1.3232-6
 C3H4,cyclo-     3.4800-9
 C3H5,allyl      2.1753-8
 C3H6,propylene  8.6743-8
 C3H6,cyclo-     3.631-10
 C3H6O,propylox  1.642-15
 C3H6O,acetone   6.000-12
 C3H6O,propanal  4.682-12
 C3H7,n-propyl   2.006-11
 C3H7,i-propyl   1.544-11
 C3H8            1.666-10
 C3H8O,1propanol 2.033-15
 C3H8O,2propanol 1.806-15
 C3O2            6.2714-9
 *C4             2.762-15
 C4H2,butadiyne  8.6337-7
 C4H4,1,3-cyclo- 1.119-11
 C4H6,butadiene  4.3806-9
 C4H6,1butyne    4.879-10
 C4H6,2butyne    3.406-10
 C4H6,cyclo-     1.129-11
 C4H8,1-butene   2.705-11
 C4H8,cis2-buten 1.017-11
 C4H8,tr2-butene 1.145-11
 C4H8,isobutene  1.219-11
 C4H8,cyclo-     1.571-14
 C4H9,n-butyl    1.363-14
 C4H9,i-butyl    7.156-15
 C4H9,s-butyl    8.818-15
 C4H9,t-butyl    1.674-15
 C4H10,n-butane  5.868-14
 C4H10,isobutane 1.807-14
 *C5             1.156-14
 C5H6,1,3cyclo-  1.114-10
 C5H8,cyclo-     1.826-13
 C5H10,1-pentene 6.799-15
 C6H2            7.399-10
 C6H5,phenyl     3.433-12
 C6H5O,phenoxy   2.426-15
 C6H6            3.986-10
 C6H5OH,phenol   2.537-14
 C7H7,benzyl     2.603-13
 C7H8            6.501-13
 C8H8,styrene    5.610-14
 C8H10,ethylbenz 2.416-16
 C10H8,naphthale 2.593-15
 *H              4.7609-4
 HCO             2.4140-6
 HCCO            1.7139-8
 HO2             2.588-16
 *H2             5.2490-1
 HCHO,formaldehy 4.3092-6
 HCOOH           5.3572-9
 H2O             6.9441-4
 H2O2            2.405-15
 *O              5.217-11
 *OH             9.1966-8
 *O2             2.922-14
 C(gr)           1.9991-2

  * THERMODYNAMIC PROPERTIES FITTED TO 20000.K


                     DETONATION PROPERTIES OF AN IDEAL REACTING GAS
 CASE =                

             REACTANT                       MOLES         ENERGY      TEMP
                                                         KJ/KG-MOL      K
 FUEL        C8H18,isooctane              1.0000000   -223660.458    300.000
 OXIDANT     O2                          12.5000000        54.358    300.000

 O/F=    1.02989  %FUEL= 49.263788  R,EQ.RATIO= 3.400000  PHI,EQ.RATIO= 3.400000

 UNBURNED GAS

 P1, BAR           1.0000
 T1, K             300.00
 H1, KJ/KG        -963.73
 M1, (1/n)         49.583
 GAMMA1            1.1503
 SON VEL1,M/SEC     240.6

 BURNED GAS

 P, BAR            42.987
 T, K             2101.34
 RHO, KG/CU M    3.5067 0
 H, KJ/KG          691.04
 U, KJ/KG         -534.80
 G, KJ/KG        -28626.6
 S, KJ/(KG)(K)    13.9519

 M, (1/n)          14.253
 MW, MOL WT        13.775
 (dLV/dLP)t      -1.00531
 (dLV/dLT)p        1.0303
 Cp, KJ/(KG)(K)    2.7777
 GAMMAs            1.2781
 SON VEL,M/SEC     1251.7

 DETONATION PARAMETERS

 P/P1              42.987
 T/T1               7.004
 M/M1              0.2875
 RHO/RHO1          1.7641
 DET MACH NUMBER   9.1793
 DET VEL,M/SEC     2208.2

 MOLE FRACTIONS

 *C              5.461-12
 *CH             9.889-11
 CH2             5.3636-8
 CH3             5.2120-5
 CH2OH           9.227-10
 CH3O            1.010-10
 CH4             4.1270-3
 CH3OH           9.7980-9
 *CO             4.3573-1
 *CO2            1.3676-4
 COOH            4.895-10
 *C2             5.643-13
 C2H             1.3048-8
 C2H2,acetylene  7.6686-4
 C2H2,vinylidene 1.1873-7
 CH2CO,ketene    6.9493-6
 O(CH)2O         4.778-12
 C2H3,vinyl      3.2597-7
 CH3CO,acetyl    6.9564-9
 C2H4            7.1450-5
 C2H4O,ethylen-o 1.709-12
 CH3CHO,ethanal  1.5943-8
 CH3COOH         4.330-12
 C2H5            5.0827-8
 C2H6            5.6896-7
 C2H5OH          8.066-12
 CH3OCH3         7.151-14
 C2O             2.8222-9
 *C3             6.690-12
 C3H3,1-propynl  2.020-10
 C3H3,2-propynl  7.7752-7
 C3H4,allene     4.2521-7
 C3H4,propyne    1.0276-6
 C3H4,cyclo-     2.3601-9
 C3H5,allyl      1.7282-8
 C3H6,propylene  8.5938-8
 C3H6,cyclo-     3.409-10
 C3H6O,propylox  1.544-15
 C3H6O,acetone   6.831-12
 C3H6O,propanal  5.040-12
 C3H7,n-propyl   1.765-11
 C3H7,i-propyl   1.384-11
 C3H8            1.975-10
 C3H8O,1propanol 2.437-15
 C3H8O,2propanol 2.203-15
 C3O2            4.7671-9
 *C4             6.207-16
 C4H2,butadiyne  4.5088-7
 C4H4,1,3-cyclo- 6.480-12
 C4H6,butadiene  3.7141-9
 C4H6,1butyne    3.890-10
 C4H6,2butyne    2.814-10
 C4H6,cyclo-     9.106-12
 C4H8,1-butene   2.755-11
 C4H8,cis2-buten 1.054-11
 C4H8,tr2-butene 1.185-11
 C4H8,isobutene  1.273-11
 C4H8,cyclo-     1.531-14
 C4H9,n-butyl    1.253-14
 C4H9,i-butyl    6.659-15
 C4H9,s-butyl    8.134-15
 C4H9,t-butyl    1.606-15
 C4H10,n-butane  7.135-14
 C4H10,isobutane 2.223-14
 *C5             2.525-15
 C5H6,1,3cyclo-  9.272-11
 C5H8,cyclo-     1.762-13
 C5H10,1-pentene 7.152-15
 C6H2            2.790-10
 C6H5,phenyl     2.136-12
 C6H5O,phenoxy   1.850-15
 C6H6            3.597-10
 C6H5OH,phenol   2.391-14
 C7H7,benzyl     1.923-13
 C7H8            6.160-13
 C8H8,styrene    4.578-14
 C8H10,ethylbenz 2.345-16
 C10H8,naphthale 2.105-15
 *H              3.4172-4
 HCO             1.8728-6
 HCCO            1.0875-8
 HO2             1.686-16
 *H2             5.2443-1
 HCHO,formaldehy 4.1756-6
 HCOOH           6.1283-9
 H2O             8.1360-4
 H2O2            1.944-15
 *O              2.922-11
 *OH             7.1005-8
 *O2             1.931-14
 C(gr)           3.3517-2

  * THERMODYNAMIC PROPERTIES FITTED TO 20000.K


                     DETONATION PROPERTIES OF AN IDEAL REACTING GAS
 CASE =                

             REACTANT                       MOLES         ENERGY      TEMP
                                                         KJ/KG-MOL      K
 FUEL        C8H18,isooctane              1.0000000   -223660.458    300.000
 OXIDANT     O2                          12.5000000        54.358    300.000

 O/F=    1.00046  %FUEL= 49.988423  R,EQ.RATIO= 3.500000  PHI,EQ.RATIO= 3.500000

 UNBURNED GAS

 P1, BAR           1.0000
 T1, K             300.00
 H1, KJ/KG        -977.93
 M1, (1/n)         49.987
 GAMMA1            1.1482
 SON VEL1,M/SEC     239.4

 BURNED GAS

 P, BAR            42.275
 T, K             2048.85
 RHO, KG/CU M    3.5341 0
 H, KJ/KG          635.84
 U, KJ/KG         -560.37
 G, KJ/KG        -27880.1
 S, KJ/(KG)(K)    13.9180

 M, (1/n)          14.241
 MW, MOL WT        13.584
 (dLV/dLP)t      -1.00604
 (dLV/dLT)p        1.0350
 Cp, KJ/(KG)(K)    2.7920
 GAMMAs            1.2787
 SON VEL,M/SEC     1236.8

 DETONATION PARAMETERS

 P/P1              42.275
 T/T1               6.830
 M/M1              0.2849
 RHO/RHO1          1.7635
 DET MACH NUMBER   9.1117
 DET VEL,M/SEC     2181.0

 MOLE FRACTIONS

 *C              1.917-12
 *CH             4.156-11
 CH2             3.0674-8
 CH3             4.2703-5
 CH2OH           7.824-10
 CH3O            8.060-11
 CH4             4.6613-3
 CH3OH           1.0915-8
 *CO             4.2333-1
 *CO2            1.6217-4
 COOH            4.460-10
 *C2             1.693-13
 C2H             5.7413-9
 C2H2,acetylene  5.5440-4
 C2H2,vinylidene 6.6074-8
 CH2CO,ketene    6.1565-6
 O(CH)2O         4.318-12
 C2H3,vinyl      2.1466-7
 CH3CO,acetyl    5.7940-9
 C2H4            6.7488-5
 C2H4O,ethylen-o 1.520-12
 CH3CHO,ethanal  1.6826-8
 CH3COOH         5.387-12
 C2H5            4.3625-8
 C2H6            6.5664-7
 C2H5OH          9.390-12
 CH3OCH3         7.746-14
 C2O             1.5125-9
 *C3             2.024-12
 C3H3,1-propynl  1.073-10
 C3H3,2-propynl  4.8479-7
 C3H4,allene     3.2638-7
 C3H4,propyne    7.9714-7
 C3H4,cyclo-     1.5987-9
 C3H5,allyl      1.3719-8
 C3H6,propylene  8.5090-8
 C3H6,cyclo-     3.199-10
 C3H6O,propylox  1.454-15
 C3H6O,acetone   7.786-12
 C3H6O,propanal  5.432-12
 C3H7,n-propyl   1.551-11
 C3H7,i-propyl   1.239-11
 C3H8            2.342-10
 C3H8O,1propanol 2.926-15
 C3H8O,2propanol 2.692-15
 C3O2            3.6324-9
 *C4             1.391-16
 C4H2,butadiyne  2.3505-7
 C4H4,1,3-cyclo- 3.749-12
 C4H6,butadiene  3.1509-9
 C4H6,1butyne    3.098-10
 C4H6,2butyne    2.322-10
 C4H6,cyclo-     7.341-12
 C4H8,1-butene   2.804-11
 C4H8,cis2-buten 1.091-11
 C4H8,tr2-butene 1.227-11
 C4H8,isobutene  1.328-11
 C4H8,cyclo-     1.492-14
 C4H9,n-butyl    1.152-14
 C4H9,i-butyl    6.191-15
 C4H9,s-butyl    7.497-15
 C4H9,t-butyl    1.539-15
 C4H10,n-butane  8.673-14
 C4H10,isobutane 2.735-14
 *C5             5.493-16
 C5H6,1,3cyclo-  7.711-11
 C5H8,cyclo-     1.700-13
 C5H10,1-pentene 7.517-15
 C6H2            1.050-10
 C6H5,phenyl     1.327-12
 C6H5O,phenoxy   1.413-15
 C6H6            3.243-10
 C6H5OH,phenol   2.254-14
 C7H7,benzyl     1.420-13
 C7H8            5.833-13
 C8H8,styrene    3.731-14
 C8H10,ethylbenz 2.274-16
 C10H8,naphthale 1.708-15
 *H              2.4521-4
 HCO             1.4539-6
 HCCO            6.9029-9
 HO2             1.101-16
 *H2             5.2386-1
 HCHO,formaldehy 4.0507-6
 HCOOH           7.0347-9
 H2O             9.5468-4
 H2O2            1.577-15
 *O              1.638-11
 *OH             5.4880-8
 *O2             1.279-14
 C(gr)           4.6110-2

  * THERMODYNAMIC PROPERTIES FITTED TO 20000.K


                     DETONATION PROPERTIES OF AN IDEAL REACTING GAS
 CASE =                

             REACTANT                       MOLES         ENERGY      TEMP
                                                         KJ/KG-MOL      K
 FUEL        C8H18,isooctane              1.0000000   -223660.458    300.000
 OXIDANT     O2                          12.5000000        54.358    300.000

 O/F=    0.97267  %FUEL= 50.692651  R,EQ.RATIO= 3.600000  PHI,EQ.RATIO= 3.600000

 UNBURNED GAS

 P1, BAR           1.0000
 T1, K             300.00
 H1, KJ/KG        -991.73
 M1, (1/n)         50.386
 GAMMA1            1.1462
 SON VEL1,M/SEC     238.2

 BURNED GAS

 P, BAR            41.600
 T, K             1999.03
 RHO, KG/CU M    3.5619 0
 H, KJ/KG          583.14
 U, KJ/KG         -584.77
 G, KJ/KG        -27170.6
 S, KJ/(KG)(K)    13.8836

 M, (1/n)          14.231
 MW, MOL WT        13.408
 (dLV/dLP)t      -1.00689
 (dLV/dLT)p        1.0408
 Cp, KJ/(KG)(K)    2.8158
 GAMMAs            1.2785
 SON VEL,M/SEC     1222.0

 DETONATION PARAMETERS

 P/P1              41.600
 T/T1               6.663
 M/M1              0.2824
 RHO/RHO1          1.7633
 DET MACH NUMBER   9.0456
 DET VEL,M/SEC     2154.7

 MOLE FRACTIONS

 *C              6.746-13
 *CH             1.750-11
 CH2             1.7554-8
 CH3             3.4982-5
 CH2OH           6.641-10
 CH3O            6.442-11
 CH4             5.2637-3
 CH3OH           1.2168-8
 *CO             4.1168-1
 *CO2            1.9272-4
 COOH            4.075-10
 *C2             5.092-14
 C2H             2.5297-9
 C2H2,acetylene  4.0089-4
 C2H2,vinylidene 3.6787-8
 CH2CO,ketene    5.4602-6
 O(CH)2O         3.914-12
 C2H3,vinyl      1.4139-7
 CH3CO,acetyl    4.8329-9
 C2H4            6.3720-5
 C2H4O,ethylen-o 1.354-12
 CH3CHO,ethanal  1.7772-8
 CH3COOH         6.717-12
 C2H5            3.7433-8
 C2H6            7.5724-7
 C2H5OH          1.094-11
 CH3OCH3         8.398-14
 C2O             8.125-10
 *C3             6.130-13
 C3H3,1-propynl  5.703-11
 C3H3,2-propynl  3.0235-7
 C3H4,allene     2.5052-7
 C3H4,propyne    6.1834-7
 C3H4,cyclo-     1.0833-9
 C3H5,allyl      1.0893-8
 C3H6,propylene  8.4205-8
 C3H6,cyclo-     3.001-10
 C3H6O,propylox  1.370-15
 C3H6O,acetone   8.879-12
 C3H6O,propanal  5.859-12
 C3H7,n-propyl   1.362-11
 C3H7,i-propyl   1.109-11
 C3H8            2.775-10
 C3H8O,1propanol 3.514-15
 C3H8O,2propanol 3.290-15
 C3O2            2.7761-9
 C4H2,butadiyne  1.2262-7
 C4H4,1,3-cyclo- 2.170-12
 C4H6,butadiene  2.6759-9
 C4H6,1butyne    2.467-10
 C4H6,2butyne    1.916-10
 C4H6,cyclo-     5.920-12
 C4H8,1-butene   2.852-11
 C4H8,cis2-buten 1.129-11
 C4H8,tr2-butene 1.269-11
 C4H8,isobutene  1.385-11
 C4H8,cyclo-     1.453-14
 C4H9,n-butyl    1.058-14
 C4H9,i-butyl    5.754-15
 C4H9,s-butyl    6.907-15
 C4H9,t-butyl    1.474-15
 C4H10,n-butane  1.054-13
 C4H10,isobutane 3.362-14
 *C5             1.198-16
 C5H6,1,3cyclo-  6.413-11
 C5H8,cyclo-     1.640-13
 C5H10,1-pentene 7.895-15
 C5H10,cyclo-    1.048-16
 C6H2            3.953-11
 C6H5,phenyl     8.246-13
 C6H5O,phenoxy   1.080-15
 C6H6            2.923-10
 C6H5OH,phenol   2.128-14
 C7H7,benzyl     1.048-13
 C7H8            5.521-13
 C8H8,styrene    3.039-14
 C8H10,ethylbenz 2.205-16
 C10H8,naphthale 1.385-15
 *H              1.7613-4
 HCO             1.1303-6
 HCCO            4.3895-9
 *H2             5.2317-1
 HCHO,formaldehy 3.9336-6
 HCOOH           8.0956-9
 H2O             1.1210-3
 H2O2            1.282-15
 *O              9.213-12
 *OH             4.2492-8
 *O2             8.506-15
 C(gr)           5.7880-2

  * THERMODYNAMIC PROPERTIES FITTED TO 20000.K



