
 *******************************************************************************

         NASA-GLENN CHEMICAL EQUILIBRIUM PROGRAM CEA2, MAY 21, 2004
                   BY  BONNIE MCBRIDE AND SANFORD GORDON
      REFS: NASA RP-1311, PART I, 1994 AND NASA RP-1311, PART II, 1996

 *******************************************************************************



 problem    phi,eq.ratio=0.5,0.6,0.7,0.8,0.9,1,1.1,1.2,1.3,1.4,1.5,1.6,1.7,1.8,1.
 9,2,
       det   t,k=300,  p,bar=1,
 react
   fuel=CH3OH moles=1 t,k=300
   oxid=O2 moles=1.5 t,k=300
 output
      trace=1e-16 siunits short
 end


                     DETONATION PROPERTIES OF AN IDEAL REACTING GAS
 CASE =                

             REACTANT                       MOLES         ENERGY      TEMP
                                                         KJ/KG-MOL      K
 FUEL        CH3OH                        1.0000000   -200858.418    300.000
 OXIDANT     O2                           1.5000000        54.358    300.000

 O/F=    2.99597  %FUEL= 25.025223  R,EQ.RATIO= 0.571429  PHI,EQ.RATIO= 0.500000

 UNBURNED GAS

 P1, BAR           1.0000
 T1, K             300.00
 H1, KJ/KG       -1567.46
 M1, (1/n)         32.010
 GAMMA1            1.3357
 SON VEL1,M/SEC     322.6

 BURNED GAS

 P, BAR            25.262
 T, K             3334.58
 RHO, KG/CU M    2.3759 0
 H, KJ/KG         -111.56
 U, KJ/KG        -1174.80
 G, KJ/KG        -35438.0
 S, KJ/(KG)(K)    10.5940

 M, (1/n)          26.076
 (dLV/dLP)t      -1.03365
 (dLV/dLT)p        1.6487
 Cp, KJ/(KG)(K)    5.8920
 GAMMAs            1.1280
 SON VEL,M/SEC     1095.1

 DETONATION PARAMETERS

 P/P1              25.262
 T/T1              11.115
 M/M1              0.8146
 RHO/RHO1          1.8514
 DET MACH NUMBER   6.2846
 DET VEL,M/SEC     2027.6

 MOLE FRACTIONS

 *C              1.145-11
 *CH             1.936-12
 CH2             1.485-12
 CH3             1.025-12
 CH2OH           1.607-12
 CH3O            4.649-13
 CH4             1.149-13
 CH3OH           4.422-14
 *CO             5.3809-2
 *CO2            1.4985-1
 COOH            2.9826-6
 C2H2,acetylene  2.414-16
 CH2CO,ketene    1.697-14
 O(CH)2O         1.336-15
 HO(CO)2OH       1.405-14
 C2O             6.222-13
 C3O2            3.154-16
 *H              9.7699-3
 HCO             7.4235-7
 HCCO            2.558-14
 HO2             4.0414-4
 *H2             1.5136-2
 HCHO,formaldehy 8.5968-9
 HCOOH           1.7547-7
 H2O             3.3805-1
 H2O2            2.5617-5
 *O              3.4662-2
 *OH             9.8046-2
 *O2             3.0025-1
 O3              2.2525-6

  * THERMODYNAMIC PROPERTIES FITTED TO 20000.K


                     DETONATION PROPERTIES OF AN IDEAL REACTING GAS
 CASE =                

             REACTANT                       MOLES         ENERGY      TEMP
                                                         KJ/KG-MOL      K
 FUEL        CH3OH                        1.0000000   -200858.418    300.000
 OXIDANT     O2                           1.5000000        54.358    300.000

 O/F=    2.49664  %FUEL= 28.598881  R,EQ.RATIO= 0.666667  PHI,EQ.RATIO= 0.600000

 UNBURNED GAS

 P1, BAR           1.0000
 T1, K             300.00
 H1, KJ/KG       -1791.54
 M1, (1/n)         32.011
 GAMMA1            1.3287
 SON VEL1,M/SEC     321.8

 BURNED GAS

 P, BAR            26.888
 T, K             3411.71
 RHO, KG/CU M    2.3804 0
 H, KJ/KG         -239.13
 U, KJ/KG        -1368.68
 G, KJ/KG        -37708.8
 S, KJ/(KG)(K)    10.9827

 M, (1/n)          25.113
 (dLV/dLP)t      -1.04098
 (dLV/dLT)p        1.7677
 Cp, KJ/(KG)(K)    6.7578
 GAMMAs            1.1263
 SON VEL,M/SEC     1127.9

 DETONATION PARAMETERS

 P/P1              26.888
 T/T1              11.372
 M/M1              0.7845
 RHO/RHO1          1.8548
 DET MACH NUMBER   6.5017
 DET VEL,M/SEC     2092.1

 MOLE FRACTIONS

 *C              3.470-11
 *CH             6.635-12
 CH2             5.340-12
 CH3             3.776-12
 CH2OH           4.671-12
 CH3O            1.410-12
 CH4             4.498-13
 CH3OH           1.388-13
 *CO             7.4245-2
 *CO2            1.4990-1
 COOH            4.3128-6
 C2H             2.514-16
 C2H2,acetylene  1.380-15
 CH2CO,ketene    6.969-14
 O(CH)2O         4.380-15
 HO(CO)2OH       2.499-14
 C2O             2.164-12
 C3O2            1.312-15
 *H              1.3848-2
 HCO             1.4509-6
 HCCO            1.010-13
 HO2             3.9126-4
 *H2             2.2224-2
 HCHO,formaldehy 1.8609-8
 HCOOH           2.8000-7
 H2O             3.6544-1
 H2O2            2.7464-5
 *O              3.6311-2
 *OH             1.0697-1
 *O2             2.3064-1
 O3              1.8159-6

  * THERMODYNAMIC PROPERTIES FITTED TO 20000.K


                     DETONATION PROPERTIES OF AN IDEAL REACTING GAS
 CASE =                

             REACTANT                       MOLES         ENERGY      TEMP
                                                         KJ/KG-MOL      K
 FUEL        CH3OH                        1.0000000   -200858.418    300.000
 OXIDANT     O2                           1.5000000        54.358    300.000

 O/F=    2.13998  %FUEL= 31.847363  R,EQ.RATIO= 0.756757  PHI,EQ.RATIO= 0.700000

 UNBURNED GAS

 P1, BAR           1.0000
 T1, K             300.00
 H1, KJ/KG       -1995.23
 M1, (1/n)         32.013
 GAMMA1            1.3226
 SON VEL1,M/SEC     321.0

 BURNED GAS

 P, BAR            28.293
 T, K             3465.85
 RHO, KG/CU M    2.3833 0
 H, KJ/KG         -359.22
 U, KJ/KG        -1546.40
 G, KJ/KG        -39613.1
 S, KJ/(KG)(K)    11.3259

 M, (1/n)          24.274
 (dLV/dLP)t      -1.04671
 (dLV/dLT)p        1.8575
 Cp, KJ/(KG)(K)    7.4684
 GAMMAs            1.1255
 SON VEL,M/SEC     1155.9

 DETONATION PARAMETERS

 P/P1              28.293
 T/T1              11.553
 M/M1              0.7583
 RHO/RHO1          1.8570
 DET MACH NUMBER   6.6867
 DET VEL,M/SEC     2146.6

 MOLE FRACTIONS

 *C              7.816-11
 *CH             1.671-11
 CH2             1.429-11
 CH3             1.058-11
 CH2OH           1.069-11
 CH3O            3.320-12
 CH4             1.351-12
 CH3OH           3.445-13
 *CO             9.4289-2
 *CO2            1.4696-1
 COOH            5.5798-6
 C2H             9.955-16
 C2H2,acetylene  5.435-15
 CH2CO,ketene    2.104-13
 O(CH)2O         1.090-14
 HO(CO)2OH       3.786-14
 CH3CO,acetyl    1.078-16
 C2O             5.516-12
 C3O2            3.890-15
 *H              1.7877-2
 HCO             2.3986-6
 HCCO            2.885-13
 HO2             3.5916-4
 *H2             3.0228-2
 HCHO,formaldehy 3.3921-8
 HCOOH           3.9844-7
 H2O             3.8766-1
 H2O2            2.7790-5
 *O              3.5623-2
 *OH             1.1098-1
 *O2             1.7599-1
 O3              1.3748-6

  * THERMODYNAMIC PROPERTIES FITTED TO 20000.K


                     DETONATION PROPERTIES OF AN IDEAL REACTING GAS
 CASE =                

             REACTANT                       MOLES         ENERGY      TEMP
                                                         KJ/KG-MOL      K
 FUEL        CH3OH                        1.0000000   -200858.418    300.000
 OXIDANT     O2                           1.5000000        54.358    300.000

 O/F=    1.87248  %FUEL= 34.813120  R,EQ.RATIO= 0.842105  PHI,EQ.RATIO= 0.800000

 UNBURNED GAS

 P1, BAR           1.0000
 T1, K             300.00
 H1, KJ/KG       -2181.20
 M1, (1/n)         32.014
 GAMMA1            1.3172
 SON VEL1,M/SEC     320.4

 BURNED GAS

 P, BAR            29.524
 T, K             3503.51
 RHO, KG/CU M    2.3853 0
 H, KJ/KG         -472.06
 U, KJ/KG        -1709.80
 G, KJ/KG        -41221.9
 S, KJ/(KG)(K)    11.6311

 M, (1/n)          23.535
 (dLV/dLP)t      -1.05087
 (dLV/dLT)p        1.9202
 Cp, KJ/(KG)(K)    8.0290
 GAMMAs            1.1253
 SON VEL,M/SEC     1180.2

 DETONATION PARAMETERS

 P/P1              29.524
 T/T1              11.678
 M/M1              0.7351
 RHO/RHO1          1.8585
 DET MACH NUMBER   6.8467
 DET VEL,M/SEC     2193.4

 MOLE FRACTIONS

 *C              1.452-10
 *CH             3.447-11
 CH2             3.161-11
 CH3             2.483-11
 CH2OH           2.093-11
 CH3O            6.630-12
 CH4             3.426-12
 CH3OH           7.336-13
 CH3OOH          1.847-16
 *CO             1.1358-1
 *CO2            1.4211-1
 COOH            6.7020-6
 *C2             2.231-16
 C2H             3.012-15
 C2H2,acetylene  1.687-14
 C2H2,vinylidene 1.423-16
 CH2CO,ketene    5.217-13
 O(CH)2O         2.266-14
 HO(CO)2OH       5.148-14
 CH3CO,acetyl    3.162-16
 C2O             1.151-11
 C3O2            9.288-15
 *H              2.1703-2
 HCO             3.5561-6
 HCCO            6.692-13
 HO2             3.1661-4
 *H2             3.9137-2
 HCHO,formaldehy 5.5314-8
 HCOOH           5.2551-7
 H2O             4.0567-1
 H2O2            2.6939-5
 *O              3.3362-2
 *OH             1.1112-1
 *O2             1.3297-1
 O3              9.8882-7

  * THERMODYNAMIC PROPERTIES FITTED TO 20000.K


                     DETONATION PROPERTIES OF AN IDEAL REACTING GAS
 CASE =                

             REACTANT                       MOLES         ENERGY      TEMP
                                                         KJ/KG-MOL      K
 FUEL        CH3OH                        1.0000000   -200858.418    300.000
 OXIDANT     O2                           1.5000000        54.358    300.000

 O/F=    1.66443  %FUEL= 37.531523  R,EQ.RATIO= 0.923077  PHI,EQ.RATIO= 0.900000

 UNBURNED GAS

 P1, BAR           1.0000
 T1, K             300.00
 H1, KJ/KG       -2351.65
 M1, (1/n)         32.015
 GAMMA1            1.3124
 SON VEL1,M/SEC     319.8

 BURNED GAS

 P, BAR            30.602
 T, K             3528.24
 RHO, KG/CU M    2.3866 0
 H, KJ/KG         -578.28
 U, KJ/KG        -1860.53
 G, KJ/KG        -42579.0
 S, KJ/(KG)(K)    11.9042

 M, (1/n)          22.878
 (dLV/dLP)t      -1.05342
 (dLV/dLT)p        1.9566
 Cp, KJ/(KG)(K)    8.4366
 GAMMAs            1.1255
 SON VEL,M/SEC     1201.3

 DETONATION PARAMETERS

 P/P1              30.602
 T/T1              11.761
 M/M1              0.7146
 RHO/RHO1          1.8595
 DET MACH NUMBER   6.9856
 DET VEL,M/SEC     2233.8

 MOLE FRACTIONS

 *C              2.349-10
 *CH             6.168-11
 CH2             6.119-11
 CH3             5.164-11
 CH2OH           3.674-11
 CH3O            1.179-11
 CH4             7.739-12
 CH3OH           1.406-12
 CH3OOH          3.167-16
 *CO             1.3196-1
 *CO2            1.3601-1
 COOH            7.6256-6
 *C2             5.227-16
 C2H             7.557-15
 C2H2,acetylene  4.446-14
 C2H2,vinylidene 3.908-16
 CH2CO,ketene    1.130-12
 O(CH)2O         4.158-14
 HO(CO)2OH       6.469-14
 CH3CO,acetyl    7.887-16
 C2O             2.085-11
 C3O2            1.909-14
 *H              2.5211-2
 HCO             4.8829-6
 HCCO            1.343-12
 HO2             2.6953-4
 *H2             4.8987-2
 HCHO,formaldehy 8.3487-8
 HCOOH           6.5653-7
 H2O             4.2010-1
 H2O2            2.5203-5
 *O              3.0100-2
 *OH             1.0819-1
 *O2             9.9132-2
 O3              6.7802-7

  * THERMODYNAMIC PROPERTIES FITTED TO 20000.K


                     DETONATION PROPERTIES OF AN IDEAL REACTING GAS
 CASE =                

             REACTANT                       MOLES         ENERGY      TEMP
                                                         KJ/KG-MOL      K
 FUEL        CH3OH                        1.0000000   -200858.418    300.000
 OXIDANT     O2                           1.5000000        54.358    300.000

 O/F=    1.49798  %FUEL= 40.032279  R,EQ.RATIO= 1.000000  PHI,EQ.RATIO= 1.000000

 UNBURNED GAS

 P1, BAR           1.0000
 T1, K             300.00
 H1, KJ/KG       -2508.45
 M1, (1/n)         32.016
 GAMMA1            1.3082
 SON VEL1,M/SEC     319.2

 BURNED GAS

 P, BAR            31.545
 T, K             3542.02
 RHO, KG/CU M    2.3874 0
 H, KJ/KG         -678.88
 U, KJ/KG        -2000.18
 G, KJ/KG        -43712.4
 S, KJ/(KG)(K)    12.1494

 M, (1/n)          22.289
 (dLV/dLP)t      -1.05430
 (dLV/dLT)p        1.9661
 Cp, KJ/(KG)(K)    8.6796
 GAMMAs            1.1259
 SON VEL,M/SEC     1219.7

 DETONATION PARAMETERS

 P/P1              31.545
 T/T1              11.807
 M/M1              0.6962
 RHO/RHO1          1.8600
 DET MACH NUMBER   7.1063
 DET VEL,M/SEC     2268.7

 MOLE FRACTIONS

 *C              3.420-10
 *CH             9.916-11
 CH2             1.073-10
 CH3             9.835-11
 CH2OH           5.949-11
 CH3O            1.922-11
 CH4             1.611-11
 CH3OH           2.494-12
 CH3OOH          4.934-16
 *CO             1.4936-1
 *CO2            1.2910-1
 COOH            8.3162-6
 *C2             1.053-15
 C2H             1.651-14
 C2H2,acetylene  1.043-13
 C2H2,vinylidene 9.373-16
 CH2CO,ketene    2.218-12
 O(CH)2O         6.954-14
 HO(CO)2OH       7.649-14
 CH3CO,acetyl    1.749-15
 C2O             3.404-11
 C3O2            3.515-14
 *H              2.8299-2
 HCO             6.3291-6
 HCCO            2.421-12
 HO2             2.2199-4
 *H2             5.9840-2
 HCHO,formaldehy 1.1907-7
 HCOOH           7.8734-7
 H2O             4.3140-1
 H2O2            2.2838-5
 *O              2.6263-2
 *OH             1.0282-1
 *O2             7.2665-2
 O3              4.4295-7

  * THERMODYNAMIC PROPERTIES FITTED TO 20000.K


                     DETONATION PROPERTIES OF AN IDEAL REACTING GAS
 CASE =                

             REACTANT                       MOLES         ENERGY      TEMP
                                                         KJ/KG-MOL      K
 FUEL        CH3OH                        1.0000000   -200858.418    300.000
 OXIDANT     O2                           1.5000000        54.358    300.000

 O/F=    1.36180  %FUEL= 42.340519  R,EQ.RATIO= 1.073171  PHI,EQ.RATIO= 1.100000

 UNBURNED GAS

 P1, BAR           1.0000
 T1, K             300.00
 H1, KJ/KG       -2653.19
 M1, (1/n)         32.017
 GAMMA1            1.3043
 SON VEL1,M/SEC     318.8

 BURNED GAS

 P, BAR            32.360
 T, K             3545.95
 RHO, KG/CU M    2.3877 0
 H, KJ/KG         -774.90
 U, KJ/KG        -2130.20
 G, KJ/KG        -44640.1
 S, KJ/(KG)(K)    12.3705

 M, (1/n)          21.754
 (dLV/dLP)t      -1.05343
 (dLV/dLT)p        1.9476
 Cp, KJ/(KG)(K)    8.7421
 GAMMAs            1.1266
 SON VEL,M/SEC     1235.7

 DETONATION PARAMETERS

 P/P1              32.360
 T/T1              11.820
 M/M1              0.6794
 RHO/RHO1          1.8602
 DET MACH NUMBER   7.2108
 DET VEL,M/SEC     2298.6

 MOLE FRACTIONS

 *C              4.565-10
 *CH             1.461-10
 CH2             1.739-10
 CH3             1.753-10
 CH2OH           9.041-11
 CH3O            2.927-11
 CH4             3.162-11
 CH3OH           4.176-12
 CH3OOH          7.111-16
 *CO             1.6574-1
 *CO2            1.2170-1
 COOH            8.7542-6
 *C2             1.881-15
 C2H             3.240-14
 C2H2,acetylene  2.241-13
 C2H2,vinylidene 2.027-15
 CH2CO,ketene    4.047-12
 O(CH)2O         1.083-13
 HO(CO)2OH       8.606-14
 C2H3,vinyl      1.244-16
 CH3CO,acetyl    3.546-15
 C2O             5.113-11
 C3O2            5.955-14
 *H              3.0866-2
 HCO             7.8358-6
 HCCO            4.016-12
 HO2             1.7684-4
 *H2             7.1771-2
 HCHO,formaldehy 1.6261-7
 HCOOH           9.1408-7
 H2O             4.3983-1
 H2O2            2.0068-5
 *O              2.2184-2
 *OH             9.5529-2
 *O2             5.2166-2
 O3              2.7484-7

  * THERMODYNAMIC PROPERTIES FITTED TO 20000.K


                     DETONATION PROPERTIES OF AN IDEAL REACTING GAS
 CASE =                

             REACTANT                       MOLES         ENERGY      TEMP
                                                         KJ/KG-MOL      K
 FUEL        CH3OH                        1.0000000   -200858.418    300.000
 OXIDANT     O2                           1.5000000        54.358    300.000

 O/F=    1.24832  %FUEL= 44.477651  R,EQ.RATIO= 1.142857  PHI,EQ.RATIO= 1.200000

 UNBURNED GAS

 P1, BAR           1.0000
 T1, K             300.00
 H1, KJ/KG       -2787.19
 M1, (1/n)         32.018
 GAMMA1            1.3008
 SON VEL1,M/SEC     318.3

 BURNED GAS

 P, BAR            33.052
 T, K             3540.54
 RHO, KG/CU M    2.3874 0
 H, KJ/KG         -867.44
 U, KJ/KG        -2251.86
 G, KJ/KG        -45372.9
 S, KJ/(KG)(K)    12.5702

 M, (1/n)          21.264
 (dLV/dLP)t      -1.05080
 (dLV/dLT)p        1.9009
 Cp, KJ/(KG)(K)    8.6117
 GAMMAs            1.1277
 SON VEL,M/SEC     1249.5

 DETONATION PARAMETERS

 P/P1              33.052
 T/T1              11.802
 M/M1              0.6641
 RHO/RHO1          1.8599
 DET MACH NUMBER   7.3002
 DET VEL,M/SEC     2324.0

 MOLE FRACTIONS

 *C              5.646-10
 *CH             1.999-10
 CH2             2.643-10
 CH3             2.965-10
 CH2OH           1.305-10
 CH3O            4.212-11
 CH4             5.938-11
 CH3OH           6.683-12
 CH3OOH          9.587-16
 *CO             1.8110-1
 *CO2            1.1404-1
 COOH            8.9323-6
 *C2             3.033-15
 C2H             5.819-14
 C2H2,acetylene  4.500-13
 C2H2,vinylidene 4.035-15
 CH2CO,ketene    6.974-12
 O(CH)2O         1.591-13
 HO(CO)2OH       9.282-14
 C2H3,vinyl      2.736-16
 CH3CO,acetyl    6.699-15
 CH3CHO,ethanal  1.207-16
 CH3COOH         1.141-16
 C2O             7.169-11
 C3O2            9.440-14
 *H              3.2813-2
 HCO             9.3339-6
 HCCO            6.226-12
 HO2             1.3602-4
 *H2             8.4855-2
 HCHO,formaldehy 2.1449-7
 HCOOH           1.0330-6
 H2O             4.4558-1
 H2O2            1.7093-5
 *O              1.8126-2
 *OH             8.6777-2
 *O2             3.6532-2
 O3              1.6119-7

  * THERMODYNAMIC PROPERTIES FITTED TO 20000.K


                     DETONATION PROPERTIES OF AN IDEAL REACTING GAS
 CASE =                

             REACTANT                       MOLES         ENERGY      TEMP
                                                         KJ/KG-MOL      K
 FUEL        CH3OH                        1.0000000   -200858.418    300.000
 OXIDANT     O2                           1.5000000        54.358    300.000

 O/F=    1.15230  %FUEL= 46.462021  R,EQ.RATIO= 1.209302  PHI,EQ.RATIO= 1.300000

 UNBURNED GAS

 P1, BAR           1.0000
 T1, K             300.00
 H1, KJ/KG       -2911.62
 M1, (1/n)         32.019
 GAMMA1            1.2977
 SON VEL1,M/SEC     318.0

 BURNED GAS

 P, BAR            33.619
 T, K             3525.99
 RHO, KG/CU M    2.3864 0
 H, KJ/KG         -957.28
 U, KJ/KG        -2366.07
 G, KJ/KG        -45917.7
 S, KJ/(KG)(K)    12.7511

 M, (1/n)          20.810
 (dLV/dLP)t      -1.04657
 (dLV/dLT)p        1.8282
 Cp, KJ/(KG)(K)    8.2906
 GAMMAs            1.1293
 SON VEL,M/SEC     1261.3

 DETONATION PARAMETERS

 P/P1              33.619
 T/T1              11.753
 M/M1              0.6499
 RHO/RHO1          1.8590
 DET MACH NUMBER   7.3749
 DET VEL,M/SEC     2344.9

 MOLE FRACTIONS

 *C              6.507-10
 *CH             2.555-10
 CH2             3.797-10
 CH3             4.803-10
 CH2OH           1.800-10
 CH3O            5.770-11
 CH4             1.078-10
 CH3OH           1.031-11
 CH3OOH          1.217-15
 *CO             1.9541-1
 *CO2            1.0633-1
 COOH            8.8553-6
 *C2             4.465-15
 C2H             9.681-14
 C2H2,acetylene  8.556-13
 C2H2,vinylidene 7.492-15
 CH2CO,ketene    1.148-11
 O(CH)2O         2.225-13
 HO(CO)2OH       9.640-14
 C2H3,vinyl      5.624-16
 CH3CO,acetyl    1.194-14
 C2H4            1.629-16
 CH3CHO,ethanal  2.398-16
 CH3COOH         1.953-16
 C2O             9.459-11
 C3O2            1.416-13
 *H              3.4050-2
 HCO             1.0746-5
 HCCO            9.106-12
 HO2             1.0076-4
 *H2             9.9152-2
 HCHO,formaldehy 2.7486-7
 HCOOH           1.1406-6
 H2O             4.4874-1
 H2O2            1.4095-5
 *O              1.4301-2
 *OH             7.7024-2
 *O2             2.4859-2
 O3              8.8879-8

  * THERMODYNAMIC PROPERTIES FITTED TO 20000.K


                     DETONATION PROPERTIES OF AN IDEAL REACTING GAS
 CASE =                

             REACTANT                       MOLES         ENERGY      TEMP
                                                         KJ/KG-MOL      K
 FUEL        CH3OH                        1.0000000   -200858.418    300.000
 OXIDANT     O2                           1.5000000        54.358    300.000

 O/F=    1.06999  %FUEL= 48.309442  R,EQ.RATIO= 1.272727  PHI,EQ.RATIO= 1.400000

 UNBURNED GAS

 P1, BAR           1.0000
 T1, K             300.00
 H1, KJ/KG       -3027.46
 M1, (1/n)         32.020
 GAMMA1            1.2948
 SON VEL1,M/SEC     317.6

 BURNED GAS

 P, BAR            34.063
 T, K             3502.28
 RHO, KG/CU M    2.3848 0
 H, KJ/KG        -1046.06
 U, KJ/KG        -2474.40
 G, KJ/KG        -46278.0
 S, KJ/(KG)(K)    12.9150

 M, (1/n)          20.387
 (dLV/dLP)t      -1.04111
 (dLV/dLT)p        1.7352
 Cp, KJ/(KG)(K)    7.8044
 GAMMAs            1.1315
 SON VEL,M/SEC     1271.3

 DETONATION PARAMETERS

 P/P1              34.063
 T/T1              11.674
 M/M1              0.6367
 RHO/RHO1          1.8578
 DET MACH NUMBER   7.4364
 DET VEL,M/SEC     2361.8

 MOLE FRACTIONS

 *C              7.002-10
 *CH             3.061-10
 CH2             5.176-10
 CH3             7.497-10
 CH2OH           2.387-10
 CH3O            7.555-11
 CH4             1.906-10
 CH3OH           1.541-11
 CH3OOH          1.461-15
 *CO             2.0863-1
 *CO2            9.8723-2
 COOH            8.5417-6
 *C2             6.032-15
 C2H             1.502-13
 C2H2,acetylene  1.553-12
 C2H2,vinylidene 1.308-14
 CH2CO,ketene    1.817-11
 O(CH)2O         2.980-13
 HO(CO)2OH       9.679-14
 C2H3,vinyl      1.090-15
 CH3CO,acetyl    2.023-14
 C2H4            3.613-16
 CH3CHO,ethanal  4.568-16
 CH3COOH         3.218-16
 C2O             1.180-10
 C3O2            2.025-13
 *H              3.4490-2
 HCO             1.1988-5
 HCCO            1.264-11
 HO2             7.1690-5
 *H2             1.1467-1
 HCHO,formaldehy 3.4343-7
 HCOOH           1.2337-6
 H2O             4.4942-1
 H2O2            1.1235-5
 *O              1.0867-2
 *OH             6.6724-2
 *O2             1.6377-2
 O3              4.5809-8

  * THERMODYNAMIC PROPERTIES FITTED TO 20000.K


                     DETONATION PROPERTIES OF AN IDEAL REACTING GAS
 CASE =                

             REACTANT                       MOLES         ENERGY      TEMP
                                                         KJ/KG-MOL      K
 FUEL        CH3OH                        1.0000000   -200858.418    300.000
 OXIDANT     O2                           1.5000000        54.358    300.000

 O/F=    0.99866  %FUEL= 50.033619  R,EQ.RATIO= 1.333333  PHI,EQ.RATIO= 1.500000

 UNBURNED GAS

 P1, BAR           1.0000
 T1, K             300.00
 H1, KJ/KG       -3135.57
 M1, (1/n)         32.020
 GAMMA1            1.2922
 SON VEL1,M/SEC     317.3

 BURNED GAS

 P, BAR            34.379
 T, K             3469.45
 RHO, KG/CU M    2.3823 0
 H, KJ/KG        -1134.61
 U, KJ/KG        -2577.69
 G, KJ/KG        -46457.9
 S, KJ/(KG)(K)    13.0635

 M, (1/n)          19.990
 (dLV/dLP)t      -1.03500
 (dLV/dLT)p        1.6309
 Cp, KJ/(KG)(K)    7.2046
 GAMMAs            1.1345
 SON VEL,M/SEC     1279.5

 DETONATION PARAMETERS

 P/P1              34.379
 T/T1              11.565
 M/M1              0.6243
 RHO/RHO1          1.8558
 DET MACH NUMBER   7.4844
 DET VEL,M/SEC     2374.6

 MOLE FRACTIONS

 *C              7.033-10
 *CH             3.441-10
 CH2             6.709-10
 CH3             1.1307-9
 CH2OH           3.046-10
 CH3O            9.479-11
 CH4             3.296-10
 CH3OH           2.241-11
 CH3OOH          1.661-15
 *CO             2.2074-1
 *CO2            9.1375-2
 COOH            8.0229-6
 *C2             7.496-15
 C2H             2.181-13
 C2H2,acetylene  2.704-12
 C2H2,vinylidene 2.155-14
 CH2CO,ketene    2.779-11
 O(CH)2O         3.838-13
 HO(CO)2OH       9.419-14
 C2H3,vinyl      2.002-15
 CH3CO,acetyl    3.276-14
 C2H4            7.716-16
 CH3CHO,ethanal  8.384-16
 CH3COOH         5.129-16
 OHCH2COOH       1.197-16
 C2O             1.397-10
 C3O2            2.777-13
 *H              3.4088-2
 HCO             1.2975-5
 HCCO            1.672-11
 HO2             4.8864-5
 *H2             1.3135-1
 HCHO,formaldehy 4.1938-7
 HCOOH           1.3092-6
 H2O             4.4767-1
 H2O2            8.6414-6
 *O              7.9351-3
 *OH             5.6346-2
 *O2             1.0416-2
 O3              2.1968-8

  * THERMODYNAMIC PROPERTIES FITTED TO 20000.K


                     DETONATION PROPERTIES OF AN IDEAL REACTING GAS
 CASE =                

             REACTANT                       MOLES         ENERGY      TEMP
                                                         KJ/KG-MOL      K
 FUEL        CH3OH                        1.0000000   -200858.418    300.000
 OXIDANT     O2                           1.5000000        54.358    300.000

 O/F=    0.93624  %FUEL= 51.646487  R,EQ.RATIO= 1.391304  PHI,EQ.RATIO= 1.600000

 UNBURNED GAS

 P1, BAR           1.0000
 T1, K             300.00
 H1, KJ/KG       -3236.70
 M1, (1/n)         32.021
 GAMMA1            1.2897
 SON VEL1,M/SEC     317.0

 BURNED GAS

 P, BAR            34.564
 T, K             3427.65
 RHO, KG/CU M    2.3788 0
 H, KJ/KG        -1223.97
 U, KJ/KG        -2676.95
 G, KJ/KG        -46462.6
 S, KJ/(KG)(K)    13.1982

 M, (1/n)          19.614
 (dLV/dLP)t      -1.02885
 (dLV/dLT)p        1.5252
 Cp, KJ/(KG)(K)    6.5567
 GAMMAs            1.1384
 SON VEL,M/SEC     1286.1

 DETONATION PARAMETERS

 P/P1              34.564
 T/T1              11.426
 M/M1              0.6125
 RHO/RHO1          1.8530
 DET MACH NUMBER   7.5187
 DET VEL,M/SEC     2383.2

 MOLE FRACTIONS

 *C              6.590-10
 *CH             3.627-10
 CH2             8.273-10
 CH3             1.6505-9
 CH2OH           3.747-10
 CH3O            1.140-10
 CH4             5.589-10
 CH3OH           3.176-11
 CH3OOH          1.790-15
 *CO             2.3171-1
 *CO2            8.4415-2
 COOH            7.3428-6
 *C2             8.569-15
 C2H             2.968-13
 C2H2,acetylene  4.529-12
 C2H2,vinylidene 3.361-14
 CH2CO,ketene    4.119-11
 O(CH)2O         4.762-13
 HO(CO)2OH       8.905-14
 C2H3,vinyl      3.493-15
 CH3CO,acetyl    5.083-14
 C2H4            1.593-15
 CH3CHO,ethanal  1.488-15
 CH3COOH         7.935-16
 OHCH2COOH       1.534-16
 C2O             1.569-10
 C3O2            3.661-13
 *H              3.2851-2
 HCO             1.3634-5
 HCCO            2.109-11
 HO2             3.1853-5
 *H2             1.4906-1
 HCHO,formaldehy 5.0116-7
 HCOOH           1.3652-6
 H2O             4.4362-1
 H2O2            6.4071-6
 *O              5.5577-3
 *OH             4.6342-2
 *O2             6.3840-3
 O3              9.7724-9

  * THERMODYNAMIC PROPERTIES FITTED TO 20000.K


                     DETONATION PROPERTIES OF AN IDEAL REACTING GAS
 CASE =                

             REACTANT                       MOLES         ENERGY      TEMP
                                                         KJ/KG-MOL      K
 FUEL        CH3OH                        1.0000000   -200858.418    300.000
 OXIDANT     O2                           1.5000000        54.358    300.000

 O/F=    0.88117  %FUEL= 53.158487  R,EQ.RATIO= 1.446809  PHI,EQ.RATIO= 1.700000

 UNBURNED GAS

 P1, BAR           1.0000
 T1, K             300.00
 H1, KJ/KG       -3331.51
 M1, (1/n)         32.022
 GAMMA1            1.2875
 SON VEL1,M/SEC     316.7

 BURNED GAS

 P, BAR            34.622
 T, K             3377.50
 RHO, KG/CU M    2.3743 0
 H, KJ/KG        -1313.96
 U, KJ/KG        -2772.15
 G, KJ/KG        -46303.1
 S, KJ/(KG)(K)    13.3202

 M, (1/n)          19.258
 (dLV/dLP)t      -1.02318
 (dLV/dLT)p        1.4269
 Cp, KJ/(KG)(K)    5.9233
 GAMMAs            1.1432
 SON VEL,M/SEC     1291.1

 DETONATION PARAMETERS

 P/P1              34.622
 T/T1              11.258
 M/M1              0.6014
 RHO/RHO1          1.8495
 DET MACH NUMBER   7.5402
 DET VEL,M/SEC     2387.9

 MOLE FRACTIONS

 *C              5.761-10
 *CH             3.586-10
 CH2             9.711-10
 CH3             2.3336-9
 CH2OH           4.447-10
 CH3O            1.317-10
 CH4             9.302-10
 CH3OH           4.391-11
 CH3OOH          1.831-15
 *CO             2.4154-1
 *CO2            7.7944-2
 COOH            6.5569-6
 *C2             9.022-15
 C2H             3.791-13
 C2H2,acetylene  7.313-12
 C2H2,vinylidene 4.968-14
 CH2CO,ketene    5.927-11
 O(CH)2O         5.707-13
 HO(CO)2OH       8.205-14
 C2H3,vinyl      5.803-15
 CH3CO,acetyl    7.572-14
 C2H4            3.183-15
 CH3CHO,ethanal  2.560-15
 CH3COOH         1.195-15
 OHCH2COOH       1.900-16
 C2O             1.676-10
 C3O2            4.657-13
 *H              3.0861-2
 HCO             1.3924-5
 HCCO            2.543-11
 HO2             1.9862-5
 *H2             1.6756-1
 HCHO,formaldehy 5.8673-7
 HCOOH           1.4008-6
 H2O             4.3743-1
 H2O2            4.5810-6
 *O              3.7330-3
 *OH             3.7119-2
 *O2             3.7711-3
 O3              4.0351-9

  * THERMODYNAMIC PROPERTIES FITTED TO 20000.K


                     DETONATION PROPERTIES OF AN IDEAL REACTING GAS
 CASE =                

             REACTANT                       MOLES         ENERGY      TEMP
                                                         KJ/KG-MOL      K
 FUEL        CH3OH                        1.0000000   -200858.418    300.000
 OXIDANT     O2                           1.5000000        54.358    300.000

 O/F=    0.83221  %FUEL= 54.578794  R,EQ.RATIO= 1.500000  PHI,EQ.RATIO= 1.800000

 UNBURNED GAS

 P1, BAR           1.0000
 T1, K             300.00
 H1, KJ/KG       -3420.57
 M1, (1/n)         32.022
 GAMMA1            1.2854
 SON VEL1,M/SEC     316.4

 BURNED GAS

 P, BAR            34.561
 T, K             3319.76
 RHO, KG/CU M    2.3690 0
 H, KJ/KG        -1405.12
 U, KJ/KG        -2863.99
 G, KJ/KG        -45992.2
 S, KJ/(KG)(K)    13.4308

 M, (1/n)          18.920
 (dLV/dLP)t      -1.01829
 (dLV/dLT)p        1.3411
 Cp, KJ/(KG)(K)    5.3469
 GAMMAs            1.1488
 SON VEL,M/SEC     1294.6

 DETONATION PARAMETERS

 P/P1              34.561
 T/T1              11.066
 M/M1              0.5908
 RHO/RHO1          1.8453
 DET MACH NUMBER   7.5497
 DET VEL,M/SEC     2389.0

 MOLE FRACTIONS

 *C              4.700-10
 *CH             3.328-10
 CH2             1.0852-9
 CH3             3.1968-9
 CH2OH           5.098-10
 CH3O            1.463-10
 CH4             1.5208-9
 CH3OH           5.929-11
 CH3OOH          1.780-15
 *CO             2.5022-1
 *CO2            7.2037-2
 COOH            5.7213-6
 *C2             8.756-15
 C2H             4.547-13
 C2H2,acetylene  1.139-11
 C2H2,vinylidene 6.962-14
 CH2CO,ketene    8.292-11
 O(CH)2O         6.619-13
 HO(CO)2OH       7.393-14
 C2H3,vinyl      9.181-15
 CH3CO,acetyl    1.085-13
 C2H4            6.164-15
 CH3CHO,ethanal  4.275-15
 CH3COOH         1.755-15
 OHCH2COOH       2.279-16
 C2O             1.706-10
 C3O2            5.729-13
 *H              2.8255-2
 HCO             1.3830-5
 HCCO            2.935-11
 HO2             1.1860-5
 *H2             1.8654-1
 HCHO,formaldehy 6.7357-7
 HCOOH           1.4166-6
 H2O             4.2939-1
 H2O2            3.1619-6
 *O              2.4056-3
 *OH             2.8967-2
 *O2             2.1493-3
 O3              1.5498-9

  * THERMODYNAMIC PROPERTIES FITTED TO 20000.K


                     DETONATION PROPERTIES OF AN IDEAL REACTING GAS
 CASE =                

             REACTANT                       MOLES         ENERGY      TEMP
                                                         KJ/KG-MOL      K
 FUEL        CH3OH                        1.0000000   -200858.418    300.000
 OXIDANT     O2                           1.5000000        54.358    300.000

 O/F=    0.78841  %FUEL= 55.915504  R,EQ.RATIO= 1.551020  PHI,EQ.RATIO= 1.900000

 UNBURNED GAS

 P1, BAR           1.0000
 T1, K             300.00
 H1, KJ/KG       -3504.38
 M1, (1/n)         32.023
 GAMMA1            1.2835
 SON VEL1,M/SEC     316.2

 BURNED GAS

 P, BAR            34.387
 T, K             3255.45
 RHO, KG/CU M    2.3629 0
 H, KJ/KG        -1497.57
 U, KJ/KG        -2952.89
 G, KJ/KG        -45546.8
 S, KJ/(KG)(K)    13.5309

 M, (1/n)          18.599
 (dLV/dLP)t      -1.01425
 (dLV/dLT)p        1.2694
 Cp, KJ/(KG)(K)    4.8479
 GAMMAs            1.1552
 SON VEL,M/SEC     1296.6

 DETONATION PARAMETERS

 P/P1              34.387
 T/T1              10.851
 M/M1              0.5808
 RHO/RHO1          1.8405
 DET MACH NUMBER   7.5473
 DET VEL,M/SEC     2386.4

 MOLE FRACTIONS

 *C              3.583-10
 *CH             2.902-10
 CH2             1.1557-9
 CH3             4.2449-9
 CH2OH           5.650-10
 CH3O            1.563-10
 CH4             2.4434-9
 CH3OH           7.827-11
 CH3OOH          1.649-15
 *CO             2.5781-1
 *CO2            6.6734-2
 COOH            4.8868-6
 *C2             7.845-15
 C2H             5.128-13
 C2H2,acetylene  1.711-11
 C2H2,vinylidene 9.263-14
 CH2CO,ketene    1.129-10
 O(CH)2O         7.446-13
 HO(CO)2OH       6.537-14
 C2H3,vinyl      1.385-14
 CH3CO,acetyl    1.496-13
 C2H4            1.158-14
 CH3CHO,ethanal  6.940-15
 CH3COOH         2.520-15
 OHCH2COOH       2.657-16
 C2O             1.656-10
 C3O2            6.831-13
 *H              2.5222-2
 HCO             1.3375-5
 HCCO            3.248-11
 HO2             6.7963-6
 *H2             2.0567-1
 HCHO,formaldehy 7.5898-7
 HCOOH           1.4142-6
 H2O             4.1981-1
 H2O2            2.1107-6
 *O              1.4894-3
 *OH             2.2047-2
 *O2             1.1842-3
 O3              5.559-10

  * THERMODYNAMIC PROPERTIES FITTED TO 20000.K


                     DETONATION PROPERTIES OF AN IDEAL REACTING GAS
 CASE =                

             REACTANT                       MOLES         ENERGY      TEMP
                                                         KJ/KG-MOL      K
 FUEL        CH3OH                        1.0000000   -200858.418    300.000
 OXIDANT     O2                           1.5000000        54.358    300.000

 O/F=    0.74899  %FUEL= 57.175787  R,EQ.RATIO= 1.600000  PHI,EQ.RATIO= 2.000000

 UNBURNED GAS

 P1, BAR           1.0000
 T1, K             300.00
 H1, KJ/KG       -3583.41
 M1, (1/n)         32.023
 GAMMA1            1.2817
 SON VEL1,M/SEC     316.0

 BURNED GAS

 P, BAR            34.116
 T, K             3185.79
 RHO, KG/CU M    2.3562 0
 H, KJ/KG        -1590.93
 U, KJ/KG        -3038.87
 G, KJ/KG        -44986.0
 S, KJ/(KG)(K)    13.6214

 M, (1/n)          18.294
 (dLV/dLP)t      -1.01101
 (dLV/dLT)p        1.2112
 Cp, KJ/(KG)(K)    4.4294
 GAMMAs            1.1621
 SON VEL,M/SEC     1297.2

 DETONATION PARAMETERS

 P/P1              34.116
 T/T1              10.619
 M/M1              0.5713
 RHO/RHO1          1.8353
 DET MACH NUMBER   7.5346
 DET VEL,M/SEC     2380.7

 MOLE FRACTIONS

 *C              2.560-10
 *CH             2.384-10
 CH2             1.1752-9
 CH3             5.4708-9
 CH2OH           6.067-10
 CH3O            1.611-10
 CH4             3.8617-9
 CH3OH           1.012-10
 CH3OOH          1.460-15
 *CO             2.6438-1
 *CO2            6.2034-2
 COOH            4.0949-6
 *C2             6.513-15
 C2H             5.455-13
 C2H2,acetylene  2.487-11
 C2H2,vinylidene 1.173-13
 CH2CO,ketene    1.501-10
 O(CH)2O         8.146-13
 HO(CO)2OH       5.693-14
 C2H3,vinyl      1.996-14
 CH3CO,acetyl    1.993-13
 C2H4            2.112-14
 CH3CHO,ethanal  1.097-14
 CH3COOH         3.544-15
 OHCH2COOH       3.019-16
 C2O             1.538-10
 C3O2            7.920-13
 *H              2.1971-2
 HCO             1.2617-5
 HCCO            3.455-11
 HO2             3.7482-6
 *H2             2.2462-1
 HCHO,formaldehy 8.4061-7
 HCOOH           1.3962-6
 H2O             4.0906-1
 H2O2            1.3663-6
 *O              8.8798-4
 *OH             1.6390-2
 *O2             6.3238-4
 O3              1.872-10

  * THERMODYNAMIC PROPERTIES FITTED TO 20000.K



