
 *******************************************************************************

         NASA-GLENN CHEMICAL EQUILIBRIUM PROGRAM CEA2, MAY 21, 2004
                   BY  BONNIE MCBRIDE AND SANFORD GORDON
      REFS: NASA RP-1311, PART I, 1994 AND NASA RP-1311, PART II, 1996

 *******************************************************************************



 problem    phi,eq.ratio=2.1,2.2,2.3,2.4,2.5,2.6,2.7,2.8,2.9,3,3.1,3.2,3.3,3.4,3.
 5,3.6,
       det   t,k=300,  p,bar=1,
 react
   fuel=CH4 moles=1 t,k=300
   oxid=O2 moles=2 t,k=300
   oxid=N2 moles=7.5238 t,k=300
 output
      trace=1e-16 siunits short
 end


                     DETONATION PROPERTIES OF AN IDEAL REACTING GAS
 CASE =                

             REACTANT                       MOLES         ENERGY      TEMP
                                                         KJ/KG-MOL      K
 FUEL        CH4                          1.0000000    -74533.907    300.000
 OXIDANT     O2                           2.0000000        54.358    300.000
 OXIDANT     N2                           7.5238000        53.881    300.000

 O/F=    8.15588  %FUEL= 10.921942  R,EQ.RATIO= 2.100000  PHI,EQ.RATIO= 2.100000

 UNBURNED GAS

 P1, BAR           1.0000
 T1, K             300.00
 H1, KJ/KG        -505.77
 M1, (1/n)         26.536
 GAMMA1            1.3770
 SON VEL1,M/SEC     359.8

 BURNED GAS

 P, BAR            14.282
 T, K             2081.15
 RHO, KG/CU M    1.8413 0
 H, KJ/KG          479.09
 U, KJ/KG         -296.52
 G, KJ/KG        -21302.8
 S, KJ/(KG)(K)    10.4663

 M, (1/n)          22.310
 (dLV/dLP)t      -1.00010
 (dLV/dLT)p        1.0023
 Cp, KJ/(KG)(K)    1.7473
 GAMMAs            1.2726
 SON VEL,M/SEC      993.5

 DETONATION PARAMETERS

 P/P1              14.282
 T/T1               6.937
 M/M1              0.8407
 RHO/RHO1          1.7308
 DET MACH NUMBER   4.7796
 DET VEL,M/SEC     1719.6

 MOLE FRACTIONS

 *C              2.901-15
 *CH             1.889-14
 CH2             3.869-12
 CH3             1.4473-9
 CH2OH           1.022-11
 CH3O            1.094-12
 CH4             4.3479-8
 CH3OH           4.045-11
 *CN             8.502-11
 *CO             1.3402-1
 *CO2            1.7865-2
 COOH            1.9445-8
 C2H             6.438-16
 C2H2,acetylene  1.534-11
 C2H2,vinylidene 2.152-15
 CH2CO,ketene    5.915-11
 O(CH)2O         1.614-14
 HO(CO)2OH       1.599-16
 C2H3,vinyl      2.115-15
 CH3CN           1.364-13
 CH3CO,acetyl    1.943-14
 C2H4            1.786-13
 CH3CHO,ethanal  1.637-14
 CH3COOH         1.863-15
 C2H6            1.732-16
 OCCN            1.081-13
 C2N2            1.326-13
 C2O             1.759-13
 C3O2            3.394-14
 *H              3.1490-4
 HCN             1.8036-6
 HCO             1.7778-7
 HCCO            2.428-13
 HNC             1.0528-7
 HNCO            3.3527-7
 HNO             8.881-10
 HNO2            3.397-12
 HO2             2.326-11
 *H2             1.8405-1
 HCHO,formaldehy 1.4490-7
 HCOOH           8.9264-8
 H2O             1.1953-1
 H2O2            9.781-11
 *N              5.424-10
 NCO             2.819-10
 *NH             3.8353-9
 NH2             9.2123-8
 NH3             1.4792-5
 NH2OH           7.565-12
 *NO             1.5367-6
 NO2             1.728-12
 *N2             5.4417-1
 NCN             2.000-15
 N2H2            6.984-12
 N2H4            1.224-14
 N2O             2.708-10
 N3              8.261-15
 N3H             8.459-14
 *O              2.8751-8
 *OH             2.6507-5
 *O2             7.9704-9

  * THERMODYNAMIC PROPERTIES FITTED TO 20000.K


                     DETONATION PROPERTIES OF AN IDEAL REACTING GAS
 CASE =                

             REACTANT                       MOLES         ENERGY      TEMP
                                                         KJ/KG-MOL      K
 FUEL        CH4                          1.0000000    -74533.907    300.000
 OXIDANT     O2                           2.0000000        54.358    300.000
 OXIDANT     N2                           7.5238000        53.881    300.000

 O/F=    7.78516  %FUEL= 11.382833  R,EQ.RATIO= 2.200000  PHI,EQ.RATIO= 2.200000

 UNBURNED GAS

 P1, BAR           1.0000
 T1, K             300.00
 H1, KJ/KG        -527.19
 M1, (1/n)         26.447
 GAMMA1            1.3762
 SON VEL1,M/SEC     360.3

 BURNED GAS

 P, BAR            13.895
 T, K             2003.74
 RHO, KG/CU M    1.8308 0
 H, KJ/KG          433.09
 U, KJ/KG         -325.88
 G, KJ/KG        -20665.6
 S, KJ/(KG)(K)    10.5297

 M, (1/n)          21.951
 (dLV/dLP)t      -1.00008
 (dLV/dLT)p        1.0015
 Cp, KJ/(KG)(K)    1.7509
 GAMMAs            1.2770
 SON VEL,M/SEC      984.5

 DETONATION PARAMETERS

 P/P1              13.895
 T/T1               6.679
 M/M1              0.8300
 RHO/RHO1          1.7268
 DET MACH NUMBER   4.7186
 DET VEL,M/SEC     1700.0

 MOLE FRACTIONS

 *C              9.610-16
 *CH             8.508-15
 CH2             2.878-12
 CH3             1.9240-9
 CH2OH           9.523-12
 CH3O            9.290-13
 CH4             9.7474-8
 CH3OH           5.902-11
 *CN             5.183-11
 *CO             1.3905-1
 *CO2            1.6701-2
 COOH            1.2580-8
 C2H             4.961-16
 C2H2,acetylene  2.603-11
 C2H2,vinylidene 2.450-15
 CH2CO,ketene    9.092-11
 O(CH)2O         1.701-14
 HO(CO)2OH       1.245-16
 C2H3,vinyl      3.217-15
 CH3CN           3.366-13
 CH3CO,acetyl    2.812-14
 C2H4            4.863-13
 CH3CHO,ethanal  3.510-14
 CH3COOH         3.415-15
 C2H5            1.002-16
 C2H6            6.838-16
 OCCN            8.456-14
 C2N2            1.645-13
 C2O             1.177-13
 C3O2            4.119-14
 *H              2.0078-4
 HCN             2.2292-6
 HCO             1.3550-7
 HCCO            2.173-13
 HNC             1.1324-7
 HNCO            3.5277-7
 HNO             3.542-10
 HNO2            9.749-13
 HO2             5.683-12
 *H2             2.0065-1
 HCHO,formaldehy 1.6029-7
 HCOOH           8.4891-8
 H2O             1.1072-1
 H2O2            3.433-11
 *N              1.863-10
 NCO             1.629-10
 *NH             1.7849-9
 NH2             6.4968-8
 NH3             1.8341-5
 NH2OH           4.481-12
 *NO             6.0916-7
 NO2             3.759-13
 *N2             5.3265-1
 NCN             1.012-15
 N2H2            4.498-12
 N2H4            1.100-14
 N2O             1.053-10
 N3              2.936-15
 N3H             4.274-14
 *O              8.0998-9
 *OH             1.2580-5
 *O2             1.9249-9

  * THERMODYNAMIC PROPERTIES FITTED TO 20000.K


                     DETONATION PROPERTIES OF AN IDEAL REACTING GAS
 CASE =                

             REACTANT                       MOLES         ENERGY      TEMP
                                                         KJ/KG-MOL      K
 FUEL        CH4                          1.0000000    -74533.907    300.000
 OXIDANT     O2                           2.0000000        54.358    300.000
 OXIDANT     N2                           7.5238000        53.881    300.000

 O/F=    7.44667  %FUEL= 11.838980  R,EQ.RATIO= 2.300000  PHI,EQ.RATIO= 2.300000

 UNBURNED GAS

 P1, BAR           1.0000
 T1, K             300.00
 H1, KJ/KG        -548.39
 M1, (1/n)         26.359
 GAMMA1            1.3754
 SON VEL1,M/SEC     360.8

 BURNED GAS

 P, BAR            13.505
 T, K             1927.75
 RHO, KG/CU M    1.8205 0
 H, KJ/KG          386.69
 U, KJ/KG         -355.13
 G, KJ/KG        -20026.9
 S, KJ/(KG)(K)    10.5894

 M, (1/n)          21.607
 (dLV/dLP)t      -1.00006
 (dLV/dLT)p        1.0010
 Cp, KJ/(KG)(K)    1.7561
 GAMMAs            1.2813
 SON VEL,M/SEC      974.9

 DETONATION PARAMETERS

 P/P1              13.505
 T/T1               6.426
 M/M1              0.8197
 RHO/RHO1          1.7227
 DET MACH NUMBER   4.6554
 DET VEL,M/SEC     1679.5

 MOLE FRACTIONS

 *C              2.919-16
 *CH             3.553-15
 CH2             2.031-12
 CH3             2.4955-9
 CH2OH           8.602-12
 CH3O            7.621-13
 CH4             2.1886-7
 CH3OH           8.527-11
 *CN             3.008-11
 *CO             1.4374-1
 *CO2            1.5713-2
 COOH            7.9569-9
 C2H             3.590-16
 C2H2,acetylene  4.317-11
 C2H2,vinylidene 2.660-15
 CH2CO,ketene    1.380-10
 O(CH)2O         1.759-14
 C2H3,vinyl      4.718-15
 CH3CN           8.266-13
 CH3CO,acetyl    3.977-14
 C2H4            1.314-12
 CH3CHO,ethanal  7.480-14
 CH3COOH         6.266-15
 C2H5            2.385-16
 C2H6            2.704-15
 OCCN            6.365-14
 C2N2            1.993-13
 C2O             7.503-14
 C3O2            4.915-14
 *H              1.2376-4
 HCN             2.7183-6
 HCO             1.0033-7
 HCCO            1.871-13
 HNC             1.1917-7
 HNCO            3.6833-7
 HNO             1.351-10
 HNO2            2.663-13
 HO2             1.306-12
 *H2             2.1666-1
 HCHO,formaldehy 1.7502-7
 HCOOH           8.0301-8
 H2O             1.0214-1
 H2O2            1.151-11
 *N              6.007-11
 NCO             9.078-11
 *NH             7.885-10
 NH2             4.4276-8
 NH3             2.2576-5
 NH2OH           2.564-12
 *NO             2.3214-7
 NO2             7.705-14
 *N2             5.2159-1
 NCN             4.829-16
 N2H2            2.794-12
 N2H4            9.581-15
 N2O             3.940-11
 N3              9.844-16
 N3H             2.067-14
 *O              2.1477-9
 *OH             5.7537-6
 *O2             4.401-10

  * THERMODYNAMIC PROPERTIES FITTED TO 20000.K


                     DETONATION PROPERTIES OF AN IDEAL REACTING GAS
 CASE =                

             REACTANT                       MOLES         ENERGY      TEMP
                                                         KJ/KG-MOL      K
 FUEL        CH4                          1.0000000    -74533.907    300.000
 OXIDANT     O2                           2.0000000        54.358    300.000
 OXIDANT     N2                           7.5238000        53.881    300.000

 O/F=    7.13640  %FUEL= 12.290454  R,EQ.RATIO= 2.400000  PHI,EQ.RATIO= 2.400000

 UNBURNED GAS

 P1, BAR           1.0000
 T1, K             300.00
 H1, KJ/KG        -569.38
 M1, (1/n)         26.272
 GAMMA1            1.3747
 SON VEL1,M/SEC     361.3

 BURNED GAS

 P, BAR            13.110
 T, K             1853.15
 RHO, KG/CU M    1.8103 0
 H, KJ/KG          339.93
 U, KJ/KG         -384.27
 G, KJ/KG        -19387.6
 S, KJ/(KG)(K)    10.6454

 M, (1/n)          21.276
 (dLV/dLP)t      -1.00005
 (dLV/dLT)p        1.0007
 Cp, KJ/(KG)(K)    1.7623
 GAMMAs            1.2854
 SON VEL,M/SEC      964.8

 DETONATION PARAMETERS

 P/P1              13.110
 T/T1               6.177
 M/M1              0.8098
 RHO/RHO1          1.7187
 DET MACH NUMBER   4.5900
 DET VEL,M/SEC     1658.2

 MOLE FRACTIONS

 *CH             1.374-15
 CH2             1.362-12
 CH3             3.1736-9
 CH2OH           7.551-12
 CH3O            6.047-13
 CH4             4.9631-7
 CH3OH           1.226-10
 *CN             1.660-11
 *CO             1.4813-1
 *CO2            1.4866-2
 COOH            4.9096-9
 C2H             2.445-16
 C2H2,acetylene  7.053-11
 C2H2,vinylidene 2.769-15
 CH2CO,ketene    2.078-10
 O(CH)2O         1.788-14
 C2H3,vinyl      6.723-15
 CH3CN           2.040-12
 CH3CO,acetyl    5.532-14
 C2H4            3.564-12
 CH3CHO,ethanal  1.598-13
 CH3COOH         1.159-14
 C2H5            5.624-16
 C2H6            1.086-14
 OCCN            4.614-14
 C2N2            2.368-13
 C2O             4.554-14
 C3O2            5.787-14
 *H              7.3612-5
 HCN             3.2814-6
 HCO             7.2147-8
 HCCO            1.554-13
 HNC             1.2301-7
 HNCO            3.8218-7
 HNO             4.902-11
 HNO2            6.868-14
 HO2             2.801-13
 *H2             2.3212-1
 HCHO,formaldehy 1.8906-7
 HCOOH           7.5601-8
 H2O             9.3803-2
 H2O2            3.659-12
 *N              1.809-11
 NCO             4.866-11
 *NH             3.295-10
 NH2             2.9142-8
 NH3             2.7671-5
 NH2OH           1.415-12
 *NO             8.4547-8
 NO2             1.473-14
 *N2             5.1098-1
 NCN             2.170-16
 N2H2            1.673-12
 N2H4            8.106-15
 N2O             1.411-11
 N3              3.099-16
 N3H             9.544-15
 *O              5.319-10
 *OH             2.5246-6
 *O2             9.436-11

  * THERMODYNAMIC PROPERTIES FITTED TO 20000.K


                     DETONATION PROPERTIES OF AN IDEAL REACTING GAS
 CASE =                

             REACTANT                       MOLES         ENERGY      TEMP
                                                         KJ/KG-MOL      K
 FUEL        CH4                          1.0000000    -74533.907    300.000
 OXIDANT     O2                           2.0000000        54.358    300.000
 OXIDANT     N2                           7.5238000        53.881    300.000

 O/F=    6.85094  %FUEL= 12.737329  R,EQ.RATIO= 2.500000  PHI,EQ.RATIO= 2.500000

 UNBURNED GAS

 P1, BAR           1.0000
 T1, K             300.00
 H1, KJ/KG        -590.15
 M1, (1/n)         26.187
 GAMMA1            1.3740
 SON VEL1,M/SEC     361.8

 BURNED GAS

 P, BAR            12.711
 T, K             1779.93
 RHO, KG/CU M    1.8002 0
 H, KJ/KG          292.82
 U, KJ/KG         -413.30
 G, KJ/KG        -18748.5
 S, KJ/(KG)(K)    10.6978

 M, (1/n)          20.959
 (dLV/dLP)t      -1.00005
 (dLV/dLT)p        1.0005
 Cp, KJ/(KG)(K)    1.7691
 GAMMAs            1.2893
 SON VEL,M/SEC      954.2

 DETONATION PARAMETERS

 P/P1              12.711
 T/T1               5.933
 M/M1              0.8003
 RHO/RHO1          1.7147
 DET MACH NUMBER   4.5226
 DET VEL,M/SEC     1636.1

 MOLE FRACTIONS

 *CH             4.898-16
 CH2             8.672-13
 CH3             3.9729-9
 CH2OH           6.449-12
 CH3O            4.646-13
 CH4             1.1454-6
 CH3OH           1.762-10
 *CN             8.694-12
 *CO             1.5227-1
 *CO2            1.4132-2
 COOH            2.9478-9
 C2H             1.570-16
 C2H2,acetylene  1.142-10
 C2H2,vinylidene 2.774-15
 CH2CO,ketene    3.124-10
 O(CH)2O         1.792-14
 C2H3,vinyl      9.361-15
 CH3CN           5.105-12
 CH3CO,acetyl    7.607-14
 C2H4            9.794-12
 CH3CHO,ethanal  3.450-13
 CH3COOH         2.175-14
 C2H5            1.325-15
 C2H6            4.489-14
 OCCN            3.221-14
 C2N2            2.769-13
 C2O             2.629-14
 C3O2            6.745-14
 *H              4.2158-5
 HCN             3.9327-6
 HCO             5.0339-8
 HCCO            1.245-13
 HNC             1.2479-7
 HNCO            3.9456-7
 HNO             1.683-11
 HNO2            1.658-14
 HO2             5.545-14
 *H2             2.4702-1
 HCHO,formaldehy 2.0239-7
 HCOOH           7.0867-8
 H2O             8.5715-2
 H2O2            1.096-12
 *N              5.056-12
 NCO             2.502-11
 *NH             1.297-10
 NH2             1.8502-8
 NH3             3.3856-5
 NH2OH           7.513-13
 *NO             2.9246-8
 NO2             2.601-15
 *N2             5.0078-1
 N2H2            9.636-13
 N2H4            6.671-15
 N2O             4.805-12
 N3H             4.192-15
 *O              1.220-10
 *OH             1.0575-6
 *O2             1.878-11

  * THERMODYNAMIC PROPERTIES FITTED TO 20000.K


                     DETONATION PROPERTIES OF AN IDEAL REACTING GAS
 CASE =                

             REACTANT                       MOLES         ENERGY      TEMP
                                                         KJ/KG-MOL      K
 FUEL        CH4                          1.0000000    -74533.907    300.000
 OXIDANT     O2                           2.0000000        54.358    300.000
 OXIDANT     N2                           7.5238000        53.881    300.000

 O/F=    6.58744  %FUEL= 13.179672  R,EQ.RATIO= 2.600000  PHI,EQ.RATIO= 2.600000

 UNBURNED GAS

 P1, BAR           1.0000
 T1, K             300.00
 H1, KJ/KG        -610.71
 M1, (1/n)         26.104
 GAMMA1            1.3732
 SON VEL1,M/SEC     362.2

 BURNED GAS

 P, BAR            12.309
 T, K             1708.03
 RHO, KG/CU M    1.7901 0
 H, KJ/KG          245.38
 U, KJ/KG         -442.23
 G, KJ/KG        -18110.0
 S, KJ/(KG)(K)    10.7466

 M, (1/n)          20.653
 (dLV/dLP)t      -1.00006
 (dLV/dLT)p        1.0004
 Cp, KJ/(KG)(K)    1.7763
 GAMMAs            1.2933
 SON VEL,M/SEC      943.0

 DETONATION PARAMETERS

 P/P1              12.309
 T/T1               5.693
 M/M1              0.7912
 RHO/RHO1          1.7105
 DET MACH NUMBER   4.4530
 DET VEL,M/SEC     1613.0

 MOLE FRACTIONS

 *CH             1.603-16
 CH2             5.241-13
 CH3             4.9124-9
 CH2OH           5.360-12
 CH3O            3.456-13
 CH4             2.7102-6
 CH3OH           2.539-10
 *CN             4.309-12
 *CO             1.5618-1
 *CO2            1.3490-2
 COOH            1.7170-9
 C2H2,acetylene  1.844-10
 C2H2,vinylidene 2.682-15
 CH2CO,ketene    4.706-10
 O(CH)2O         1.773-14
 C2H3,vinyl      1.280-14
 CH3CN           1.307-11
 CH3CO,acetyl    1.039-13
 C2H4            2.754-11
 CH3CHO,ethanal  7.582-13
 CH3COOH         4.168-14
 C2H5            3.150-15
 C2H6            1.934-13
 C2H5OH          1.348-16
 OCCN            2.165-14
 C2N2            3.198-13
 C2O             1.441-14
 C3H4,propyne    2.007-16
 C3O2            7.806-14
 *H              2.3178-5
 HCN             4.6910-6
 HCO             3.4027-8
 HCCO            9.638-14
 HNC             1.2463-7
 HNCO            4.0569-7
 HNO             5.426-12
 HNO2            3.715-15
 HO2             1.003-14
 *H2             2.6139-1
 HCHO,formaldehy 2.1503-7
 HCOOH           6.6154-8
 H2O             7.7881-2
 H2O2            3.069-13
 *N              1.302-12
 NCO             1.230-11
 *NH             4.786-11
 NH2             1.1308-8
 NH3             4.1445-5
 NH2OH           3.825-13
 *NO             9.5415-9
 NO2             4.190-16
 *N2             4.9098-1
 N2H2            5.329-13
 N2H4            5.342-15
 N2O             1.546-12
 N3H             1.745-15
 *O              2.568-11
 *OH             4.2056-7
 *O2             3.431-12

  * THERMODYNAMIC PROPERTIES FITTED TO 20000.K


                     DETONATION PROPERTIES OF AN IDEAL REACTING GAS
 CASE =                

             REACTANT                       MOLES         ENERGY      TEMP
                                                         KJ/KG-MOL      K
 FUEL        CH4                          1.0000000    -74533.907    300.000
 OXIDANT     O2                           2.0000000        54.358    300.000
 OXIDANT     N2                           7.5238000        53.881    300.000

 O/F=    6.34346  %FUEL= 13.617554  R,EQ.RATIO= 2.700000  PHI,EQ.RATIO= 2.700000

 UNBURNED GAS

 P1, BAR           1.0000
 T1, K             300.00
 H1, KJ/KG        -631.06
 M1, (1/n)         26.021
 GAMMA1            1.3725
 SON VEL1,M/SEC     362.7

 BURNED GAS

 P, BAR            11.903
 T, K             1637.41
 RHO, KG/CU M    1.7800 0
 H, KJ/KG          197.60
 U, KJ/KG         -471.07
 G, KJ/KG        -17472.7
 S, KJ/(KG)(K)    10.7916

 M, (1/n)          20.360
 (dLV/dLP)t      -1.00009
 (dLV/dLT)p        1.0005
 Cp, KJ/(KG)(K)    1.7839
 GAMMAs            1.2972
 SON VEL,M/SEC      931.3

 DETONATION PARAMETERS

 P/P1              11.903
 T/T1               5.458
 M/M1              0.7824
 RHO/RHO1          1.7063
 DET MACH NUMBER   4.3812
 DET VEL,M/SEC     1589.1

 MOLE FRACTIONS

 CH2             3.000-13
 CH3             6.0168-9
 CH2OH           4.335-12
 CH3O            2.486-13
 CH4             6.6235-6
 CH3OH           3.686-10
 *CN             2.014-12
 *CO             1.5989-1
 *CO2            1.2923-2
 COOH            9.668-10
 C2H2,acetylene  2.982-10
 C2H2,vinylidene 2.507-15
 CH2CO,ketene    7.135-10
 O(CH)2O         1.733-14
 C2H3,vinyl      1.728-14
 CH3CN           3.454-11
 CH3CO,acetyl    1.414-13
 C2H4            7.997-11
 CH3CHO,ethanal  1.709-12
 CH3COOH         8.205-14
 C2H5            7.618-15
 C2H6            8.801-13
 C2H5OH          3.849-16
 OCCN            1.399-14
 C2N2            3.659-13
 C2O             7.485-15
 C3H3,2-propynl  1.164-16
 C3H4,allene     2.479-16
 C3H4,propyne    6.722-16
 C3H6,propylene  1.259-16
 C3O2            8.991-14
 *H              1.2191-5
 HCN             5.5822-6
 HCO             2.2237-8
 HCCO            7.204-14
 HNC             1.2266-7
 HNCO            4.1578-7
 HNO             1.632-12
 HNO2            7.643-16
 HO2             1.638-15
 *H2             2.7525-1
 HCHO,formaldehy 2.2699-7
 HCOOH           6.1497-8
 H2O             7.0301-2
 H2O2            7.964-14
 *N              3.060-13
 NCO             5.759-12
 *NH             1.645-11
 NH2             6.6357-9
 NH3             5.0866-5
 NH2OH           1.861-13
 *NO             2.9136-9
 *N2             4.8156-1
 N2H2            2.821-13
 N2H4            4.163-15
 N2O             4.662-13
 N3H             6.845-16
 *O              4.907-12
 *OH             1.5778-7
 *O2             5.687-13

  * THERMODYNAMIC PROPERTIES FITTED TO 20000.K


                     DETONATION PROPERTIES OF AN IDEAL REACTING GAS
 CASE =                

             REACTANT                       MOLES         ENERGY      TEMP
                                                         KJ/KG-MOL      K
 FUEL        CH4                          1.0000000    -74533.907    300.000
 OXIDANT     O2                           2.0000000        54.358    300.000
 OXIDANT     N2                           7.5238000        53.881    300.000

 O/F=    6.11691  %FUEL= 14.051041  R,EQ.RATIO= 2.800000  PHI,EQ.RATIO= 2.800000

 UNBURNED GAS

 P1, BAR           1.0000
 T1, K             300.00
 H1, KJ/KG        -651.21
 M1, (1/n)         25.940
 GAMMA1            1.3718
 SON VEL1,M/SEC     363.2

 BURNED GAS

 P, BAR            11.493
 T, K             1568.14
 RHO, KG/CU M    1.7698 0
 H, KJ/KG          149.70
 U, KJ/KG         -499.68
 G, KJ/KG        -16838.1
 S, KJ/(KG)(K)    10.8331

 M, (1/n)          20.078
 (dLV/dLP)t      -1.00014
 (dLV/dLT)p        1.0009
 Cp, KJ/(KG)(K)    1.7922
 GAMMAs            1.3010
 SON VEL,M/SEC      919.2

 DETONATION PARAMETERS

 P/P1              11.493
 T/T1               5.227
 M/M1              0.7740
 RHO/RHO1          1.7018
 DET MACH NUMBER   4.3067
 DET VEL,M/SEC     1564.2

 MOLE FRACTIONS

 CH2             1.624-13
 CH3             7.3187-9
 CH2OH           3.411-12
 CH3O            1.730-13
 CH4             1.6825-5
 CH3OH           5.404-10
 *CN             8.854-13
 *CO             1.6342-1
 *CO2            1.2414-2
 COOH            5.246-10
 C2H2,acetylene  4.858-10
 C2H2,vinylidene 2.270-15
 CH2CO,ketene    1.0932-9
 O(CH)2O         1.676-14
 C2H3,vinyl      2.310-14
 CH3CN           9.490-11
 CH3CO,acetyl    1.926-13
 C2H4            2.418-10
 CH3CHO,ethanal  3.974-12
 CH3COOH         1.667-13
 C2H5            1.888-14
 C2H6            4.273-12
 C2H5OH          1.146-15
 OCCN            8.685-15
 C2N2            4.159-13
 C2O             3.673-15
 C3H3,2-propynl  2.463-16
 C3H4,allene     8.460-16
 C3H4,propyne    2.346-15
 C3H6,propylene  7.772-16
 C3O2            1.033-13
 *H              6.1156-6
 HCN             6.6411-6
 HCO             1.4025-8
 HCCO            5.199-14
 HNC             1.1913-7
 HNCO            4.2501-7
 HNO             4.546-13
 HNO2            1.430-16
 HO2             2.391-16
 *H2             2.8860-1
 HCHO,formaldehy 2.3828-7
 HCOOH           5.6914-8
 H2O             6.2976-2
 H2O2            1.900-14
 *N              6.525-14
 NCO             2.558-12
 *NH             5.240-12
 NH2             3.7302-9
 NH3             6.2687-5
 NH2OH           8.614-14
 *NO             8.271-10
 *N2             4.7250-1
 N2H2            1.426-13
 N2H4            3.155-15
 N2O             1.310-13
 N3H             2.521-16
 *O              8.436-13
 *OH             5.5527-8
 *O2             8.459-14

  * THERMODYNAMIC PROPERTIES FITTED TO 20000.K


                     DETONATION PROPERTIES OF AN IDEAL REACTING GAS
 CASE =                

             REACTANT                       MOLES         ENERGY      TEMP
                                                         KJ/KG-MOL      K
 FUEL        CH4                          1.0000000    -74533.907    300.000
 OXIDANT     O2                           2.0000000        54.358    300.000
 OXIDANT     N2                           7.5238000        53.881    300.000

 O/F=    5.90598  %FUEL= 14.480199  R,EQ.RATIO= 2.900000  PHI,EQ.RATIO= 2.900000

 UNBURNED GAS

 P1, BAR           1.0000
 T1, K             300.00
 H1, KJ/KG        -671.16
 M1, (1/n)         25.861
 GAMMA1            1.3712
 SON VEL1,M/SEC     363.7

 BURNED GAS

 P, BAR            11.081
 T, K             1500.11
 RHO, KG/CU M    1.7597 0
 H, KJ/KG          101.47
 U, KJ/KG         -528.24
 G, KJ/KG        -16205.8
 S, KJ/(KG)(K)    10.8707

 M, (1/n)          19.807
 (dLV/dLP)t      -1.00027
 (dLV/dLT)p        1.0020
 Cp, KJ/(KG)(K)    1.8030
 GAMMAs            1.3046
 SON VEL,M/SEC      906.4

 DETONATION PARAMETERS

 P/P1              11.081
 T/T1               5.000
 M/M1              0.7659
 RHO/RHO1          1.6973
 DET MACH NUMBER   4.2304
 DET VEL,M/SEC     1538.4

 MOLE FRACTIONS

 CH2             8.284-14
 CH3             8.8633-9
 CH2OH           2.608-12
 CH3O            1.161-13
 CH4             4.4800-5
 CH3OH           8.030-10
 *CN             3.638-13
 *CO             1.6678-1
 *CO2            1.1951-2
 COOH            2.730-10
 C2H2,acetylene  8.012-10
 C2H2,vinylidene 1.992-15
 CH2CO,ketene    1.7002-9
 O(CH)2O         1.605-14
 C2H3,vinyl      3.072-14
 CH3CN           2.739-10
 CH3CO,acetyl    2.635-13
 C2H4            7.698-10
 CH3CHO,ethanal  9.616-12
 CH3COOH         3.524-13
 C2H5            4.841-14
 C2H6            2.248-11
 C2H5OH          3.593-15
 OCCN            5.166-15
 C2N2            4.711-13
 C2O             1.696-15
 C3H3,2-propynl  5.321-16
 C3H4,allene     3.043-15
 C3H4,propyne    8.645-15
 C3H6,propylene  5.250-15
 C3O2            1.187-13
 *H              2.9105-6
 HCN             7.9168-6
 HCO             8.5081-9
 HCCO            3.618-14
 HNC             1.1423-7
 HNCO            4.3361-7
 HNO             1.162-13
 *H2             3.0143-1
 HCHO,formaldehy 2.4895-7
 HCOOH           5.2429-8
 H2O             5.5915-2
 H2O2            4.116-15
 *N              1.246-14
 NCO             1.072-12
 *NH             1.533-12
 NH2             2.0002-9
 NH3             7.7740-5
 NH2OH           3.774-14
 *NO             2.161-10
 *N2             4.6379-1
 N2H2            6.850-14
 N2H4            2.324-15
 N2O             3.392-14
 *O              1.286-13
 *OH             1.8174-8
 *O2             1.112-14

  * THERMODYNAMIC PROPERTIES FITTED TO 20000.K


                     DETONATION PROPERTIES OF AN IDEAL REACTING GAS
 CASE =                

             REACTANT                       MOLES         ENERGY      TEMP
                                                         KJ/KG-MOL      K
 FUEL        CH4                          1.0000000    -74533.907    300.000
 OXIDANT     O2                           2.0000000        54.358    300.000
 OXIDANT     N2                           7.5238000        53.881    300.000

 O/F=    5.70912  %FUEL= 14.905092  R,EQ.RATIO= 3.000000  PHI,EQ.RATIO= 3.000000

 UNBURNED GAS

 P1, BAR           1.0000
 T1, K             300.00
 H1, KJ/KG        -690.90
 M1, (1/n)         25.782
 GAMMA1            1.3705
 SON VEL1,M/SEC     364.1

 BURNED GAS

 P, BAR            10.672
 T, K             1433.71
 RHO, KG/CU M    1.7501 0
 H, KJ/KG          53.302
 U, KJ/KG         -556.51
 G, KJ/KG        -15580.6
 S, KJ/(KG)(K)    10.9044

 M, (1/n)          19.548
 (dLV/dLP)t      -1.00061
 (dLV/dLT)p        1.0053
 Cp, KJ/(KG)(K)    1.8230
 GAMMAs            1.3076
 SON VEL,M/SEC      893.0

 DETONATION PARAMETERS

 P/P1              10.672
 T/T1               4.779
 M/M1              0.7582
 RHO/RHO1          1.6931
 DET MACH NUMBER   4.1520
 DET VEL,M/SEC     1511.9

 MOLE FRACTIONS

 CH2             3.984-14
 CH3             1.0705-8
 CH2OH           1.938-12
 CH3O            7.520-14
 CH4             1.2536-4
 CH3OH           1.2110-9
 *CN             1.399-13
 *CO             1.6996-1
 *CO2            1.1522-2
 COOH            1.361-10
 C2H2,acetylene  1.3422-9
 C2H2,vinylidene 1.700-15
 CH2CO,ketene    2.6901-9
 O(CH)2O         1.523-14
 C2H3,vinyl      4.077-14
 CH3CN           8.338-10
 CH3CO,acetyl    3.631-13
 C2H4            2.5895-9
 C2H4O,ethylen-o 1.199-16
 CH3CHO,ethanal  2.428-11
 CH3COOH         7.762-13
 C2H5            1.289-13
 C2H6            1.287-10
 C2H5OH          1.191-14
 OCCN            2.948-15
 C2N2            5.335-13
 C2O             7.372-16
 C3H3,2-propynl  1.179-15
 C3H4,allene     1.160-14
 C3H4,propyne    3.381-14
 C3H5,allyl      3.591-16
 C3H6,propylene  3.904-14
 C3H6O,acetone   2.231-16
 C3H8            3.904-16
 C3O2            1.368-13
 *H              1.3136-6
 HCN             9.4717-6
 HCO             4.9641-9
 HCCO            2.432-14
 HNC             1.0832-7
 HNCO            4.4180-7
 HNO             2.717-14
 *H2             3.1369-1
 HCHO,formaldehy 2.5898-7
 HCOOH           4.8063-8
 H2O             4.9154-2
 H2O2            8.077-16
 *N              2.130-15
 NCO             4.235-13
 *NH             4.119-13
 NH2             1.0230-9
 NH3             9.7065-5
 NH2OH           1.563-14
 *NO             5.185-11
 *N2             4.5544-1
 N2H2            3.127-14
 N2H4            1.665-15
 N2O             8.090-15
 *O              1.735-14
 *OH             5.5219-9
 *O2             1.286-15

  * THERMODYNAMIC PROPERTIES FITTED TO 20000.K


                     DETONATION PROPERTIES OF AN IDEAL REACTING GAS
 CASE =                

             REACTANT                       MOLES         ENERGY      TEMP
                                                         KJ/KG-MOL      K
 FUEL        CH4                          1.0000000    -74533.907    300.000
 OXIDANT     O2                           2.0000000        54.358    300.000
 OXIDANT     N2                           7.5238000        53.881    300.000

 O/F=    5.52495  %FUEL= 15.325785  R,EQ.RATIO= 3.100000  PHI,EQ.RATIO= 3.100000

 UNBURNED GAS

 P1, BAR           1.0000
 T1, K             300.00
 H1, KJ/KG        -710.46
 M1, (1/n)         25.705
 GAMMA1            1.3698
 SON VEL1,M/SEC     364.6

 BURNED GAS

 P, BAR            10.278
 T, K             1370.06
 RHO, KG/CU M    1.7418 0
 H, KJ/KG          6.0485
 U, KJ/KG         -584.04
 G, KJ/KG        -14974.7
 S, KJ/(KG)(K)    10.9344

 M, (1/n)          19.305
 (dLV/dLP)t      -1.00157
 (dLV/dLT)p        1.0153
 Cp, KJ/(KG)(K)    1.8735
 GAMMAs            1.3079
 SON VEL,M/SEC      878.5

 DETONATION PARAMETERS

 P/P1              10.278
 T/T1               4.567
 M/M1              0.7510
 RHO/RHO1          1.6902
 DET MACH NUMBER   4.0727
 DET VEL,M/SEC     1484.9

 MOLE FRACTIONS

 CH2             1.829-14
 CH3             1.2897-8
 CH2OH           1.408-12
 CH3O            4.739-14
 CH4             3.6458-4
 CH3OH           1.8462-9
 *CN             5.105-14
 *CO             1.7293-1
 *CO2            1.1115-2
 COOH            6.559-11
 C2H2,acetylene  2.2779-9
 C2H2,vinylidene 1.420-15
 CH2CO,ketene    4.3163-9
 O(CH)2O         1.437-14
 C2H3,vinyl      5.404-14
 CH3CN           2.6499-9
 CH3CO,acetyl    5.033-13
 C2H4            9.1006-9
 C2H4O,ethylen-o 2.005-16
 CH3CHO,ethanal  6.343-11
 CH3COOH         1.767-12
 C2H5            3.540-13
 C2H6            7.880-10
 C2H5OH          4.129-14
 OCCN            1.631-15
 C2N2            6.053-13
 C2O             3.060-16
 C3H3,2-propynl  2.671-15
 C3H4,allene     4.639-14
 C3H4,propyne    1.388-13
 C3H5,allyl      1.597-15
 C3H6,propylene  3.136-13
 C3H6,cyclo-     4.237-16
 C3H6O,acetone   1.439-15
 C3H6O,propanal  3.380-16
 C3H8            5.186-15
 C3O2            1.582-13
 *H              5.6836-7
 HCN             1.1370-5
 HCO             2.8077-9
 HCCO            1.591-14
 HNC             1.0185-7
 HNCO            4.4979-7
 HNO             5.924-15
 *H2             3.2512-1
 HCHO,formaldehy 2.6837-7
 HCOOH           4.3892-8
 H2O             4.2803-2
 H2O2            1.465-16
 *N              3.338-16
 NCO             1.599-13
 *NH             1.034-13
 NH2             5.038-10
 NH3             1.2175-4
 NH2OH           6.196-15
 *NO             1.163-11
 *N2             4.4753-1
 N2H2            1.373-14
 N2H4            1.167-15
 N2O             1.809-15
 *O              2.125-15
 *OH             1.5806-9
 *O2             1.344-16

  * THERMODYNAMIC PROPERTIES FITTED TO 20000.K


                     DETONATION PROPERTIES OF AN IDEAL REACTING GAS
 CASE =                

             REACTANT                       MOLES         ENERGY      TEMP
                                                         KJ/KG-MOL      K
 FUEL        CH4                          1.0000000    -74533.907    300.000
 OXIDANT     O2                           2.0000000        54.358    300.000
 OXIDANT     N2                           7.5238000        53.881    300.000

 O/F=    5.35230  %FUEL= 15.742338  R,EQ.RATIO= 3.200000  PHI,EQ.RATIO= 3.200000

 UNBURNED GAS

 P1, BAR           1.0000
 T1, K             300.00
 H1, KJ/KG        -729.82
 M1, (1/n)         25.629
 GAMMA1            1.3692
 SON VEL1,M/SEC     365.0

 BURNED GAS

 P, BAR            9.9341
 T, K             1312.26
 RHO, KG/CU M    1.7378 0
 H, KJ/KG         -38.013
 U, KJ/KG         -609.66
 G, KJ/KG        -14421.3
 S, KJ/(KG)(K)    10.9607

 M, (1/n)          19.087
 (dLV/dLP)t      -1.00414
 (dLV/dLT)p        1.0433
 Cp, KJ/(KG)(K)    2.0137
 GAMMAs            1.3009
 SON VEL,M/SEC      862.4

 DETONATION PARAMETERS

 P/P1               9.934
 T/T1               4.374
 M/M1              0.7447
 RHO/RHO1          1.6913
 DET MACH NUMBER   3.9955
 DET VEL,M/SEC     1458.5

 MOLE FRACTIONS

 CH2             8.398-15
 CH3             1.5409-8
 CH2OH           1.020-12
 CH3O            2.987-14
 CH4             1.0445-3
 CH3OH           2.7899-9
 *CN             1.875-14
 *CO             1.7551-1
 *CO2            1.0731-2
 COOH            3.177-11
 C2H2,acetylene  3.8306-9
 C2H2,vinylidene 1.180-15
 CH2CO,ketene    6.8779-9
 O(CH)2O         1.356-14
 C2H3,vinyl      7.101-14
 CH3CN           8.3181-9
 CH3CO,acetyl    6.935-13
 C2H4            3.1451-8
 C2H4O,ethylen-o 3.326-16
 CH3CHO,ethanal  1.637-10
 CH3COOH         3.996-12
 C2H5            9.567-13
 C2H6            4.7166-9
 C2H5OH          1.408-13
 CH3OCH3         2.312-16
 OCCN            9.076-16
 C2N2            6.877-13
 C2O             1.277-16
 C3H3,2-propynl  5.976-15
 C3H4,allene     1.823-13
 C3H4,propyne    5.599-13
 C3H5,allyl      6.977-15
 C3H6,propylene  2.459-12
 C3H6,cyclo-     2.911-15
 C3H6O,acetone   9.097-15
 C3H6O,propanal  1.853-15
 C3H8            6.690-14
 C3O2            1.829-13
 C4H6,butadiene  4.201-16
 *H              2.4678-7
 HCN             1.3601-5
 HCO             1.5903-9
 HCCO            1.042-14
 HNC             9.5626-8
 HNCO            4.5779-7
 HNO             1.308-15
 *H2             3.3512-1
 HCHO,formaldehy 2.7699-7
 HCOOH           4.0130-8
 H2O             3.7151-2
 NCO             6.094-14
 *NH             2.620-14
 NH2             2.487-10
 NH3             1.5178-4
 NH2OH           2.472-15
 *NO             2.642-12
 *N2             4.4028-1
 N2H2            6.071-15
 N2H4            8.193-16
 N2O             4.112-16
 *O              2.643-16
 *OH             4.557-10

  * THERMODYNAMIC PROPERTIES FITTED TO 20000.K


                     DETONATION PROPERTIES OF AN IDEAL REACTING GAS
 CASE =                

             REACTANT                       MOLES         ENERGY      TEMP
                                                         KJ/KG-MOL      K
 FUEL        CH4                          1.0000000    -74533.907    300.000
 OXIDANT     O2                           2.0000000        54.358    300.000
 OXIDANT     N2                           7.5238000        53.881    300.000

 O/F=    5.19011  %FUEL= 16.154812  R,EQ.RATIO= 3.300000  PHI,EQ.RATIO= 3.300000

 UNBURNED GAS

 P1, BAR           1.0000
 T1, K             300.00
 H1, KJ/KG        -748.99
 M1, (1/n)         25.554
 GAMMA1            1.3686
 SON VEL1,M/SEC     365.5

 BURNED GAS

 P, BAR            9.6805
 T, K             1265.10
 RHO, KG/CU M    1.7404 0
 H, KJ/KG         -75.960
 U, KJ/KG         -632.18
 G, KJ/KG        -13972.0
 S, KJ/(KG)(K)    10.9841

 M, (1/n)          18.911
 (dLV/dLP)t      -1.00950
 (dLV/dLT)p        1.1045
 Cp, KJ/(KG)(K)    2.3305
 GAMMAs            1.2832
 SON VEL,M/SEC      844.8

 DETONATION PARAMETERS

 P/P1               9.680
 T/T1               4.217
 M/M1              0.7400
 RHO/RHO1          1.6988
 DET MACH NUMBER   3.9267
 DET VEL,M/SEC     1435.2

 MOLE FRACTIONS

 CH2             4.207-15
 CH3             1.7964-8
 CH2OH           7.657-13
 CH3O            1.985-14
 CH4             2.6385-3
 CH3OH           4.0080-9
 *CN             7.729-15
 *CO             1.7738-1
 *CO2            1.0400-2
 COOH            1.674-11
 C2H2,acetylene  6.0518-9
 C2H2,vinylidene 9.993-16
 CH2CO,ketene    1.0374-8
 O(CH)2O         1.290-14
 C2H3,vinyl      9.017-14
 CH3CN           2.2867-8
 CH3CO,acetyl    9.206-13
 C2H4            9.3872-8
 C2H4O,ethylen-o 5.201-16
 CH3CHO,ethanal  3.780-10
 CH3COOH         8.237-12
 C2H5            2.298-12
 C2H6            2.2873-8
 C2H5OH          4.163-13
 CH3OCH3         5.778-16
 OCCN            5.417-16
 C2N2            7.727-13
 C3H3,2-propynl  1.217-14
 C3H4,allene     6.107-13
 C3H4,propyne    1.919-12
 C3H4,cyclo-     1.352-16
 C3H5,allyl      2.567-14
 C3H6,propylene  1.516-11
 C3H6,cyclo-     1.599-14
 C3H6O,acetone   4.644-14
 C3H6O,propanal  8.348-15
 C3H8            6.407-13
 C3O2            2.086-13
 C4H6,butadiene  3.366-15
 C4H6,2butyne    1.027-16
 C4H8,1-butene   3.978-16
 C4H8,cis2-buten 2.315-16
 C4H8,tr2-butene 2.618-16
 C4H8,isobutene  3.465-16
 *H              1.1769-7
 HCN             1.5921-5
 HCO             9.601-10
 HCCO            7.163-15
 HNC             9.0363-8
 HNCO            4.6518-7
 HNO             3.441-16
 *H2             3.4266-1
 HCHO,formaldehy 2.8418-7
 HCOOH           3.7103-8
 H2O             3.2650-2
 NCO             2.600-14
 *NH             7.772-15
 NH2             1.330-10
 NH3             1.8392-4
 NH2OH           1.098-15
 *NO             7.130-13
 *N2             4.3408-1
 N2H2            2.956-15
 N2H4            5.996-16
 N2O             1.113-16
 *OH             1.513-10

  * THERMODYNAMIC PROPERTIES FITTED TO 20000.K


                     DETONATION PROPERTIES OF AN IDEAL REACTING GAS
 CASE =                

             REACTANT                       MOLES         ENERGY      TEMP
                                                         KJ/KG-MOL      K
 FUEL        CH4                          1.0000000    -74533.907    300.000
 OXIDANT     O2                           2.0000000        54.358    300.000
 OXIDANT     N2                           7.5238000        53.881    300.000

 O/F=    5.03746  %FUEL= 16.563268  R,EQ.RATIO= 3.400000  PHI,EQ.RATIO= 3.400000

 UNBURNED GAS

 P1, BAR           1.0000
 T1, K             300.00
 H1, KJ/KG        -767.97
 M1, (1/n)         25.481
 GAMMA1            1.3679
 SON VEL1,M/SEC     365.9

 BURNED GAS

 P, BAR            9.5092
 T, K             1230.33
 RHO, KG/CU M    1.7463 0
 H, KJ/KG         -107.87
 U, KJ/KG         -652.41
 G, KJ/KG        -13648.4
 S, KJ/(KG)(K)    11.0056

 M, (1/n)          18.786
 (dLV/dLP)t      -1.01711
 (dLV/dLT)p        1.1948
 Cp, KJ/(KG)(K)    2.8166
 GAMMAs            1.2614
 SON VEL,M/SEC      828.8

 DETONATION PARAMETERS

 P/P1               9.509
 T/T1               4.101
 M/M1              0.7372
 RHO/RHO1          1.7094
 DET MACH NUMBER   3.8716
 DET VEL,M/SEC     1416.8

 MOLE FRACTIONS

 CH2             2.421-15
 CH3             2.0071-8
 CH2OH           6.077-13
 CH3O            1.433-14
 CH4             5.4138-3
 CH3OH           5.2979-9
 *CN             3.826-15
 *CO             1.7835-1
 *CO2            1.0168-2
 COOH            1.012-11
 C2H2,acetylene  8.5600-9
 C2H2,vinylidene 8.651-16
 CH2CO,ketene    1.4212-8
 O(CH)2O         1.237-14
 C2H3,vinyl      1.073-13
 CH3CN           5.0028-8
 CH3CO,acetyl    1.140-12
 C2H4            2.1862-7
 C2H4O,ethylen-o 7.322-16
 CH3CHO,ethanal  7.229-10
 CH3COOH         1.449-11
 C2H5            4.506-12
 C2H6            7.7922-8
 C2H5OH          9.654-13
 CH3OCH3         1.174-15
 OCCN            3.589-16
 C2N2            8.395-13
 C3H3,2-propynl  2.090-14
 C3H4,allene     1.551-12
 C3H4,propyne    4.961-12
 C3H4,cyclo-     2.732-16
 C3H5,allyl      7.016-14
 C3H6,propylene  6.212-11
 C3H6,cyclo-     5.981-14
 C3H6O,acetone   1.648-13
 C3H6O,propanal  2.685-14
 C3H7,n-propyl   1.942-16
 C3H7,i-propyl   2.484-16
 C3H8            3.707-12
 C3O2            2.299-13
 C4H6,butadiene  1.689-14
 C4H6,1butyne    2.507-16
 C4H6,2butyne    4.797-16
 C4H8,1-butene   2.770-15
 C4H8,cis2-buten 1.659-15
 C4H8,tr2-butene 1.878-15
 C4H8,isobutene  2.524-15
 C4H10,n-butane  1.755-16
 C6H6            1.011-15
 *H              6.5551-8
 HCN             1.7900-5
 HCO             6.432-10
 HCCO            5.293-15
 HNC             8.5849-8
 HNCO            4.7004-7
 HNO             1.207-16
 *H2             3.4726-1
 HCHO,formaldehy 2.8872-7
 HCOOH           3.4930-8
 H2O             2.9492-2
 NCO             1.329-14
 *NH             2.982-15
 NH2             8.099-11
 NH3             2.1304-4
 NH2OH           5.803-16
 *NO             2.552-13
 *N2             4.2908-1
 N2H2            1.676-15
 N2H4            4.676-16
 *OH             6.366-11

  * THERMODYNAMIC PROPERTIES FITTED TO 20000.K


                     DETONATION PROPERTIES OF AN IDEAL REACTING GAS
 CASE =                

             REACTANT                       MOLES         ENERGY      TEMP
                                                         KJ/KG-MOL      K
 FUEL        CH4                          1.0000000    -74533.907    300.000
 OXIDANT     O2                           2.0000000        54.358    300.000
 OXIDANT     N2                           7.5238000        53.881    300.000

 O/F=    4.89353  %FUEL= 16.967764  R,EQ.RATIO= 3.500000  PHI,EQ.RATIO= 3.500000

 UNBURNED GAS

 P1, BAR           1.0000
 T1, K             300.00
 H1, KJ/KG        -786.78
 M1, (1/n)         25.408
 GAMMA1            1.3673
 SON VEL1,M/SEC     366.4

 BURNED GAS

 P, BAR            9.3782
 T, K             1205.14
 RHO, KG/CU M    1.7503 0
 H, KJ/KG         -136.20
 U, KJ/KG         -671.99
 G, KJ/KG        -13423.9
 S, KJ/(KG)(K)    11.0258

 M, (1/n)          18.701
 (dLV/dLP)t      -1.02488
 (dLV/dLT)p        1.2902
 Cp, KJ/(KG)(K)    3.3516
 GAMMAs            1.2437
 SON VEL,M/SEC      816.3

 DETONATION PARAMETERS

 P/P1               9.378
 T/T1               4.017
 M/M1              0.7360
 RHO/RHO1          1.7183
 DET MACH NUMBER   3.8285
 DET VEL,M/SEC     1402.7

 MOLE FRACTIONS

 CH2             1.566-15
 CH3             2.1466-8
 CH2OH           5.052-13
 CH3O            1.109-14
 CH4             9.1757-3
 CH3OH           6.4782-9
 *CN             2.216-15
 *CO             1.7856-1
 *CO2            1.0048-2
 COOH            6.930-12
 C2H2,acetylene  1.0856-8
 C2H2,vinylidene 7.551-16
 CH2CO,ketene    1.7735-8
 O(CH)2O         1.186-14
 C2H3,vinyl      1.190-13
 CH3CN           8.8192-8
 CH3CO,acetyl    1.315-12
 C2H4            4.0348-7
 C2H4O,ethylen-o 9.293-16
 CH3CHO,ethanal  1.1579-9
 CH3COOH         2.196-11
 C2H5            7.283-12
 C2H6            1.9128-7
 C2H5OH          1.783-12
 CH3OCH3         1.962-15
 OCCN            2.587-16
 C2N2            8.742-13
 C3H3,2-propynl  3.032-14
 C3H4,allene     3.024-12
 C3H4,propyne    9.804-12
 C3H4,cyclo-     4.477-16
 C3H5,allyl      1.444-13
 C3H6,propylene  1.735-10
 C3H6,cyclo-     1.560-13
 C3H6O,acetone   4.160-13
 C3H6O,propanal  6.294-14
 C3H7,n-propyl   4.601-16
 C3H7,i-propyl   6.026-16
 C3H8            1.341-11
 C3H8O,1propanol 1.190-16
 C3H8O,2propanol 1.848-16
 C3O2            2.434-13
 C4H2,butadiyne  1.236-16
 C4H6,butadiene  5.445-14
 C4H6,1butyne    7.293-16
 C4H6,2butyne    1.464-15
 C4H8,1-butene   1.141-14
 C4H8,cis2-buten 6.982-15
 C4H8,tr2-butene 7.917-15
 C4H8,isobutene  1.076-14
 C4H10,n-butane  9.344-16
 C4H10,isobutane 4.161-16
 C5H6,1,3cyclo-  3.424-16
 C6H6            6.975-15
 *H              4.1946-8
 HCN             1.9310-5
 HCO             4.720-10
 HCCO            4.139-15
 HNC             8.1475-8
 HNCO            4.7130-7
 *H2             3.4948-1
 HCHO,formaldehy 2.9018-7
 HCOOH           3.3420-8
 H2O             2.7406-2
 NCO             7.957-15
 *NH             1.436-15
 NH2             5.532-11
 NH3             2.3670-4
 NH2OH           3.581-16
 *NO             1.178-13
 *N2             4.2508-1
 N2H2            1.084-15
 N2H4            3.837-16
 *OH             3.315-11

  * THERMODYNAMIC PROPERTIES FITTED TO 20000.K


                     DETONATION PROPERTIES OF AN IDEAL REACTING GAS
 CASE =                

             REACTANT                       MOLES         ENERGY      TEMP
                                                         KJ/KG-MOL      K
 FUEL        CH4                          1.0000000    -74533.907    300.000
 OXIDANT     O2                           2.0000000        54.358    300.000
 OXIDANT     N2                           7.5238000        53.881    300.000

 O/F=    4.75760  %FUEL= 17.368357  R,EQ.RATIO= 3.600000  PHI,EQ.RATIO= 3.600000

 UNBURNED GAS

 P1, BAR           1.0000
 T1, K             300.00
 H1, KJ/KG        -805.39
 M1, (1/n)         25.337
 GAMMA1            1.3667
 SON VEL1,M/SEC     366.8

 BURNED GAS

 P, BAR            9.2666
 T, K             1186.19
 RHO, KG/CU M    1.7518 0
 H, KJ/KG         -162.54
 U, KJ/KG         -691.51
 G, KJ/KG        -13264.0
 S, KJ/(KG)(K)    11.0451

 M, (1/n)          18.645
 (dLV/dLP)t      -1.03151
 (dLV/dLT)p        1.3744
 Cp, KJ/(KG)(K)    3.8418
 GAMMAs            1.2311
 SON VEL,M/SEC      807.0

 DETONATION PARAMETERS

 P/P1               9.267
 T/T1               3.954
 M/M1              0.7359
 RHO/RHO1          1.7246
 DET MACH NUMBER   3.7941
 DET VEL,M/SEC     1391.7

 MOLE FRACTIONS

 CH2             1.098-15
 CH3             2.2228-8
 CH2OH           4.335-13
 CH3O            8.995-15
 CH4             1.3582-2
 CH3OH           7.4954-9
 *CN             1.429-15
 *CO             1.7824-1
 *CO2            1.0015-2
 COOH            5.175-12
 C2H2,acetylene  1.2713-8
 C2H2,vinylidene 6.605-16
 CH2CO,ketene    2.0683-8
 O(CH)2O         1.136-14
 C2H3,vinyl      1.253-13
 CH3CN           1.3315-7
 CH3CO,acetyl    1.439-12
 C2H4            6.3052-7
 C2H4O,ethylen-o 1.094-15
 CH3CHO,ethanal  1.6341-9
 CH3COOH         2.995-11
 C2H5            1.024-11
 C2H6            3.7188-7
 C2H5OH          2.801-12
 CH3OCH3         2.850-15
 OCCN            1.972-16
 C2N2            8.801-13
 C3H3,2-propynl  3.888-14
 C3H4,allene     4.873-12
 C3H4,propyne    1.597-11
 C3H4,cyclo-     6.299-16
 C3H5,allyl      2.422-13
 C3H6,propylene  3.688-10
 C3H6,cyclo-     3.141-13
 C3H6O,acetone   8.237-13
 C3H6O,propanal  1.176-13
 C3H7,n-propyl   8.579-16
 C3H7,i-propyl   1.144-15
 C3H8            3.472-11
 C3H8O,1propanol 2.495-16
 C3H8O,2propanol 3.960-16
 C3O2            2.499-13
 C4H2,butadiyne  1.688-16
 C4H6,butadiene  1.278-13
 C4H6,1butyne    1.580-15
 C4H6,2butyne    3.292-15
 C4H8,1-butene   3.231-14
 C4H8,cis2-buten 2.010-14
 C4H8,tr2-butene 2.281-14
 C4H8,isobutene  3.127-14
 C4H10,n-butane  3.217-15
 C4H10,isobutane 1.452-15
 C5H6,1,3cyclo-  1.009-15
 C6H6            2.894-14
 *H              2.9582-8
 HCN             2.0200-5
 HCO             3.689-10
 HCCO            3.359-15
 HNC             7.7123-8
 HNCO            4.6968-7
 *H2             3.5014-1
 HCHO,formaldehy 2.8933-7
 HCOOH           3.2352-8
 H2O             2.6018-2
 NCO             5.313-15
 *NH             8.103-16
 NH2             4.091-11
 NH3             2.5541-4
 NH2OH           2.464-16
 *NO             6.498-14
 *N2             4.2173-1
 N2H2            7.674-16
 N2H4            3.259-16
 *OH             2.008-11

  * THERMODYNAMIC PROPERTIES FITTED TO 20000.K



