
 *******************************************************************************

         NASA-GLENN CHEMICAL EQUILIBRIUM PROGRAM CEA2, MAY 21, 2004
                   BY  BONNIE MCBRIDE AND SANFORD GORDON
      REFS: NASA RP-1311, PART I, 1994 AND NASA RP-1311, PART II, 1996

 *******************************************************************************



 problem    phi,eq.ratio=0.50,0.6,0.7,0.8,0.9,1,1.1,1.2,1.3,1.4,1.5,1.6,1.7,1.8,1
 .9,2,
       det   t,k=300,  p,bar=1,
 react
   fuel=CO moles=1 t,k=300
   oxid=O2 moles=0.5 t,k=300
 output
      trace=1e-16 siunits short
 end


                     DETONATION PROPERTIES OF AN IDEAL REACTING GAS
 CASE =                

             REACTANT                       MOLES         ENERGY      TEMP
                                                         KJ/KG-MOL      K
 FUEL        CO                           1.0000000   -110481.283    300.000
 OXIDANT     O2                           0.5000000        54.358    300.000

 O/F=    1.14240  %FUEL= 46.676576  R,EQ.RATIO= 0.666667  PHI,EQ.RATIO= 0.500000

 UNBURNED GAS

 P1, BAR           1.0000
 T1, K             300.00
 H1, KJ/KG       -1840.18
 M1, (1/n)         30.004
 GAMMA1            1.3969
 SON VEL1,M/SEC     340.8

 BURNED GAS

 P, BAR            17.861
 T, K             3408.78
 RHO, KG/CU M    2.2116 0
 H, KJ/KG         -758.12
 U, KJ/KG        -1565.73
 G, KJ/KG        -28930.9
 S, KJ/(KG)(K)     8.2648

 M, (1/n)          35.094
 (dLV/dLP)t      -1.04721
 (dLV/dLT)p        1.8873
 Cp, KJ/(KG)(K)    5.3109
 GAMMAs            1.1257
 SON VEL,M/SEC      953.5

 DETONATION PARAMETERS

 P/P1              17.861
 T/T1              11.363
 M/M1              1.1696
 RHO/RHO1          1.8386
 DET MACH NUMBER   5.1444
 DET VEL,M/SEC     1753.1

 MOLE FRACTIONS

 *C              8.516-11
 *CO             1.9033-1
 *CO2            3.9449-1
 C2O             9.126-12
 C3O2            9.492-15
 *O              5.5225-2
 *O2             3.5996-1
 O3              2.8696-6

  * THERMODYNAMIC PROPERTIES FITTED TO 20000.K


                     DETONATION PROPERTIES OF AN IDEAL REACTING GAS
 CASE =                

             REACTANT                       MOLES         ENERGY      TEMP
                                                         KJ/KG-MOL      K
 FUEL        CO                           1.0000000   -110481.283    300.000
 OXIDANT     O2                           0.5000000        54.358    300.000

 O/F=    0.95200  %FUEL= 51.229460  R,EQ.RATIO= 0.750000  PHI,EQ.RATIO= 0.600000

 UNBURNED GAS

 P1, BAR           1.0000
 T1, K             300.00
 H1, KJ/KG       -2019.83
 M1, (1/n)         29.823
 GAMMA1            1.3971
 SON VEL1,M/SEC     341.8

 BURNED GAS

 P, BAR            18.062
 T, K             3453.67
 RHO, KG/CU M    2.1996 0
 H, KJ/KG         -918.47
 U, KJ/KG        -1739.62
 G, KJ/KG        -29608.1
 S, KJ/(KG)(K)     8.3070

 M, (1/n)          34.970
 (dLV/dLP)t      -1.05265
 (dLV/dLT)p        1.9771
 Cp, KJ/(KG)(K)    5.6770
 GAMMAs            1.1249
 SON VEL,M/SEC      961.1

 DETONATION PARAMETERS

 P/P1              18.062
 T/T1              11.512
 M/M1              1.1726
 RHO/RHO1          1.8397
 DET MACH NUMBER   5.1727
 DET VEL,M/SEC     1768.2

 MOLE FRACTIONS

 *C              1.694-10
 *CO             2.3768-1
 *CO2            4.0191-1
 *C2             2.516-16
 C2O             1.996-11
 C3O2            2.336-14
 *O              5.6751-2
 *O2             3.0366-1
 O3              2.4337-6

  * THERMODYNAMIC PROPERTIES FITTED TO 20000.K


                     DETONATION PROPERTIES OF AN IDEAL REACTING GAS
 CASE =                

             REACTANT                       MOLES         ENERGY      TEMP
                                                         KJ/KG-MOL      K
 FUEL        CO                           1.0000000   -110481.283    300.000
 OXIDANT     O2                           0.5000000        54.358    300.000

 O/F=    0.81600  %FUEL= 55.066032  R,EQ.RATIO= 0.823529  PHI,EQ.RATIO= 0.700000

 UNBURNED GAS

 P1, BAR           1.0000
 T1, K             300.00
 H1, KJ/KG       -2171.23
 M1, (1/n)         29.672
 GAMMA1            1.3972
 SON VEL1,M/SEC     342.7

 BURNED GAS

 P, BAR            18.192
 T, K             3482.97
 RHO, KG/CU M    2.1891 0
 H, KJ/KG        -1055.93
 U, KJ/KG        -1886.96
 G, KJ/KG        -30099.1
 S, KJ/(KG)(K)     8.3386

 M, (1/n)          34.847
 (dLV/dLP)t      -1.05606
 (dLV/dLT)p        2.0319
 Cp, KJ/(KG)(K)    5.9018
 GAMMAs            1.1247
 SON VEL,M/SEC      966.8

 DETONATION PARAMETERS

 P/P1              18.192
 T/T1              11.610
 M/M1              1.1744
 RHO/RHO1          1.8403
 DET MACH NUMBER   5.1911
 DET VEL,M/SEC     1779.1

 MOLE FRACTIONS

 *C              2.756-10
 *CO             2.7998-1
 *CO2            4.0510-1
 *C2             5.609-16
 C2O             3.527-11
 C3O2            4.550-14
 *O              5.6271-2
 *O2             2.5865-1
 O3              2.0277-6

  * THERMODYNAMIC PROPERTIES FITTED TO 20000.K


                     DETONATION PROPERTIES OF AN IDEAL REACTING GAS
 CASE =                

             REACTANT                       MOLES         ENERGY      TEMP
                                                         KJ/KG-MOL      K
 FUEL        CO                           1.0000000   -110481.283    300.000
 OXIDANT     O2                           0.5000000        54.358    300.000

 O/F=    0.71400  %FUEL= 58.343010  R,EQ.RATIO= 0.888889  PHI,EQ.RATIO= 0.800000

 UNBURNED GAS

 P1, BAR           1.0000
 T1, K             300.00
 H1, KJ/KG       -2300.54
 M1, (1/n)         29.544
 GAMMA1            1.3974
 SON VEL1,M/SEC     343.5

 BURNED GAS

 P, BAR            18.277
 T, K             3502.12
 RHO, KG/CU M    2.1799 0
 H, KJ/KG        -1174.94
 U, KJ/KG        -2013.36
 G, KJ/KG        -30462.3
 S, KJ/(KG)(K)     8.3627

 M, (1/n)          34.730
 (dLV/dLP)t      -1.05796
 (dLV/dLT)p        2.0616
 Cp, KJ/(KG)(K)    6.0263
 GAMMAs            1.1247
 SON VEL,M/SEC      971.1

 DETONATION PARAMETERS

 P/P1              18.277
 T/T1              11.674
 M/M1              1.1755
 RHO/RHO1          1.8405
 DET MACH NUMBER   5.2032
 DET VEL,M/SEC     1787.2

 MOLE FRACTIONS

 *C              3.949-10
 *CO             3.1774-1
 *CO2            4.0566-1
 *C2             1.031-15
 C2O             5.443-11
 C3O2            7.635-14
 *O              5.4598-2
 *O2             2.2200-1
 O3              1.6741-6

  * THERMODYNAMIC PROPERTIES FITTED TO 20000.K


                     DETONATION PROPERTIES OF AN IDEAL REACTING GAS
 CASE =                

             REACTANT                       MOLES         ENERGY      TEMP
                                                         KJ/KG-MOL      K
 FUEL        CO                           1.0000000   -110481.283    300.000
 OXIDANT     O2                           0.5000000        54.358    300.000

 O/F=    0.63467  %FUEL= 61.174506  R,EQ.RATIO= 0.947368  PHI,EQ.RATIO= 0.900000

 UNBURNED GAS

 P1, BAR           1.0000
 T1, K             300.00
 H1, KJ/KG       -2412.27
 M1, (1/n)         29.435
 GAMMA1            1.3975
 SON VEL1,M/SEC     344.1

 BURNED GAS

 P, BAR            18.330
 T, K             3514.23
 RHO, KG/CU M    2.1718 0
 H, KJ/KG        -1278.98
 U, KJ/KG        -2122.98
 G, KJ/KG        -30733.3
 S, KJ/(KG)(K)     8.3814

 M, (1/n)          34.620
 (dLV/dLP)t      -1.05876
 (dLV/dLT)p        2.0728
 Cp, KJ/(KG)(K)    6.0776
 GAMMAs            1.1249
 SON VEL,M/SEC      974.4

 DETONATION PARAMETERS

 P/P1              18.330
 T/T1              11.714
 M/M1              1.1762
 RHO/RHO1          1.8405
 DET MACH NUMBER   5.2111
 DET VEL,M/SEC     1793.3

 MOLE FRACTIONS

 *C              5.187-10
 *CO             3.5157-1
 *CO2            4.0453-1
 *C2             1.659-15
 C2O             7.655-11
 C3O2            1.157-13
 *O              5.2223-2
 *O2             1.9168-1
 O3              1.3753-6

  * THERMODYNAMIC PROPERTIES FITTED TO 20000.K


                     DETONATION PROPERTIES OF AN IDEAL REACTING GAS
 CASE =                

             REACTANT                       MOLES         ENERGY      TEMP
                                                         KJ/KG-MOL      K
 FUEL        CO                           1.0000000   -110481.283    300.000
 OXIDANT     O2                           0.5000000        54.358    300.000

 O/F=    0.57120  %FUEL= 63.645577  R,EQ.RATIO= 1.000000  PHI,EQ.RATIO= 1.000000

 UNBURNED GAS

 P1, BAR           1.0000
 T1, K             300.00
 H1, KJ/KG       -2509.78
 M1, (1/n)         29.340
 GAMMA1            1.3976
 SON VEL1,M/SEC     344.7

 BURNED GAS

 P, BAR            18.361
 T, K             3521.19
 RHO, KG/CU M    2.1647 0
 H, KJ/KG        -1370.78
 U, KJ/KG        -2218.99
 G, KJ/KG        -30935.0
 S, KJ/(KG)(K)     8.3961

 M, (1/n)          34.516
 (dLV/dLP)t      -1.05871
 (dLV/dLT)p        2.0701
 Cp, KJ/(KG)(K)    6.0737
 GAMMAs            1.1252
 SON VEL,M/SEC      976.9

 DETONATION PARAMETERS

 P/P1              18.361
 T/T1              11.737
 M/M1              1.1764
 RHO/RHO1          1.8403
 DET MACH NUMBER   5.2157
 DET VEL,M/SEC     1797.9

 MOLE FRACTIONS

 *C              6.400-10
 *CO             3.8199-1
 *CO2            4.0229-1
 *C2             2.427-15
 C2O             1.007-10
 C3O2            1.629-13
 *O              4.9450-2
 *O2             1.6627-1
 O3              1.1262-6

  * THERMODYNAMIC PROPERTIES FITTED TO 20000.K


                     DETONATION PROPERTIES OF AN IDEAL REACTING GAS
 CASE =                

             REACTANT                       MOLES         ENERGY      TEMP
                                                         KJ/KG-MOL      K
 FUEL        CO                           1.0000000   -110481.283    300.000
 OXIDANT     O2                           0.5000000        54.358    300.000

 O/F=    0.51927  %FUEL= 65.820924  R,EQ.RATIO= 1.047619  PHI,EQ.RATIO= 1.100000

 UNBURNED GAS

 P1, BAR           1.0000
 T1, K             300.00
 H1, KJ/KG       -2595.62
 M1, (1/n)         29.257
 GAMMA1            1.3977
 SON VEL1,M/SEC     345.2

 BURNED GAS

 P, BAR            18.375
 T, K             3524.23
 RHO, KG/CU M    2.1582 0
 H, KJ/KG        -1452.44
 U, KJ/KG        -2303.81
 G, KJ/KG        -31082.9
 S, KJ/(KG)(K)     8.4076

 M, (1/n)          34.418
 (dLV/dLP)t      -1.05802
 (dLV/dLT)p        2.0569
 Cp, KJ/(KG)(K)    6.0273
 GAMMAs            1.1256
 SON VEL,M/SEC      978.9

 DETONATION PARAMETERS

 P/P1              18.375
 T/T1              11.747
 M/M1              1.1764
 RHO/RHO1          1.8401
 DET MACH NUMBER   5.2180
 DET VEL,M/SEC     1801.3

 MOLE FRACTIONS

 *C              7.535-10
 *CO             4.0948-1
 *CO2            3.9931-1
 *C2             3.307-15
 C2O             1.261-10
 C3O2            2.171-13
 *O              4.6472-2
 *O2             1.4474-1
 O3              9.2017-7

  * THERMODYNAMIC PROPERTIES FITTED TO 20000.K


                     DETONATION PROPERTIES OF AN IDEAL REACTING GAS
 CASE =                

             REACTANT                       MOLES         ENERGY      TEMP
                                                         KJ/KG-MOL      K
 FUEL        CO                           1.0000000   -110481.283    300.000
 OXIDANT     O2                           0.5000000        54.358    300.000

 O/F=    0.47600  %FUEL= 67.750635  R,EQ.RATIO= 1.090909  PHI,EQ.RATIO= 1.200000

 UNBURNED GAS

 P1, BAR           1.0000
 T1, K             300.00
 H1, KJ/KG       -2671.77
 M1, (1/n)         29.183
 GAMMA1            1.3978
 SON VEL1,M/SEC     345.7

 BURNED GAS

 P, BAR            18.374
 T, K             3524.20
 RHO, KG/CU M    2.1524 0
 H, KJ/KG        -1525.66
 U, KJ/KG        -2379.31
 G, KJ/KG        -31188.0
 S, KJ/(KG)(K)     8.4168

 M, (1/n)          34.325
 (dLV/dLP)t      -1.05682
 (dLV/dLT)p        2.0355
 Cp, KJ/(KG)(K)    5.9472
 GAMMAs            1.1260
 SON VEL,M/SEC      980.4

 DETONATION PARAMETERS

 P/P1              18.374
 T/T1              11.747
 M/M1              1.1762
 RHO/RHO1          1.8397
 DET MACH NUMBER   5.2183
 DET VEL,M/SEC     1803.7

 MOLE FRACTIONS

 *C              8.555-10
 *CO             4.3444-1
 *CO2            3.9582-1
 *C2             4.263-15
 C2O             1.519-10
 C3O2            2.775-13
 *O              4.3412-2
 *O2             1.2633-1
 O3              7.5023-7

  * THERMODYNAMIC PROPERTIES FITTED TO 20000.K


                     DETONATION PROPERTIES OF AN IDEAL REACTING GAS
 CASE =                

             REACTANT                       MOLES         ENERGY      TEMP
                                                         KJ/KG-MOL      K
 FUEL        CO                           1.0000000   -110481.283    300.000
 OXIDANT     O2                           0.5000000        54.358    300.000

 O/F=    0.43939  %FUEL= 69.474093  R,EQ.RATIO= 1.130435  PHI,EQ.RATIO= 1.300000

 UNBURNED GAS

 P1, BAR           1.0000
 T1, K             300.00
 H1, KJ/KG       -2739.77
 M1, (1/n)         29.118
 GAMMA1            1.3979
 SON VEL1,M/SEC     346.0

 BURNED GAS

 P, BAR            18.363
 T, K             3521.65
 RHO, KG/CU M    2.1471 0
 H, KJ/KG        -1591.78
 U, KJ/KG        -2447.00
 G, KJ/KG        -31258.0
 S, KJ/(KG)(K)     8.4240

 M, (1/n)          34.238
 (dLV/dLP)t      -1.05523
 (dLV/dLT)p        2.0075
 Cp, KJ/(KG)(K)    5.8401
 GAMMAs            1.1266
 SON VEL,M/SEC      981.6

 DETONATION PARAMETERS

 P/P1              18.363
 T/T1              11.739
 M/M1              1.1758
 RHO/RHO1          1.8393
 DET MACH NUMBER   5.2172
 DET VEL,M/SEC     1805.4

 MOLE FRACTIONS

 *C              9.434-10
 *CO             4.5722-1
 *CO2            3.9199-1
 *C2             5.260-15
 C2O             1.775-10
 C3O2            3.432-13
 *O              4.0349-2
 *O2             1.1045-1
 O3              6.1030-7

  * THERMODYNAMIC PROPERTIES FITTED TO 20000.K


                     DETONATION PROPERTIES OF AN IDEAL REACTING GAS
 CASE =                

             REACTANT                       MOLES         ENERGY      TEMP
                                                         KJ/KG-MOL      K
 FUEL        CO                           1.0000000   -110481.283    300.000
 OXIDANT     O2                           0.5000000        54.358    300.000

 O/F=    0.40800  %FUEL= 71.022688  R,EQ.RATIO= 1.166667  PHI,EQ.RATIO= 1.400000

 UNBURNED GAS

 P1, BAR           1.0000
 T1, K             300.00
 H1, KJ/KG       -2800.88
 M1, (1/n)         29.060
 GAMMA1            1.3980
 SON VEL1,M/SEC     346.4

 BURNED GAS

 P, BAR            18.342
 T, K             3517.01
 RHO, KG/CU M    2.1422 0
 H, KJ/KG        -1651.87
 U, KJ/KG        -2508.06
 G, KJ/KG        -31298.9
 S, KJ/(KG)(K)     8.4296

 M, (1/n)          34.154
 (dLV/dLP)t      -1.05332
 (dLV/dLT)p        1.9742
 Cp, KJ/(KG)(K)    5.7106
 GAMMAs            1.1272
 SON VEL,M/SEC      982.4

 DETONATION PARAMETERS

 P/P1              18.342
 T/T1              11.723
 M/M1              1.1753
 RHO/RHO1          1.8388
 DET MACH NUMBER   5.2148
 DET VEL,M/SEC     1806.4

 MOLE FRACTIONS

 *C              1.0158-9
 *CO             4.7809-1
 *CO2            3.8792-1
 *C2             6.261-15
 C2O             2.023-10
 C3O2            4.133-13
 *O              3.7333-2
 *O2             9.6660-2
 O3              4.9517-7

  * THERMODYNAMIC PROPERTIES FITTED TO 20000.K


                     DETONATION PROPERTIES OF AN IDEAL REACTING GAS
 CASE =                

             REACTANT                       MOLES         ENERGY      TEMP
                                                         KJ/KG-MOL      K
 FUEL        CO                           1.0000000   -110481.283    300.000
 OXIDANT     O2                           0.5000000        54.358    300.000

 O/F=    0.38080  %FUEL= 72.421746  R,EQ.RATIO= 1.200000  PHI,EQ.RATIO= 1.500000

 UNBURNED GAS

 P1, BAR           1.0000
 T1, K             300.00
 H1, KJ/KG       -2856.09
 M1, (1/n)         29.007
 GAMMA1            1.3980
 SON VEL1,M/SEC     346.7

 BURNED GAS

 P, BAR            18.312
 T, K             3510.56
 RHO, KG/CU M    2.1377 0
 H, KJ/KG        -1706.82
 U, KJ/KG        -2563.46
 G, KJ/KG        -31315.0
 S, KJ/(KG)(K)     8.4340

 M, (1/n)          34.073
 (dLV/dLP)t      -1.05116
 (dLV/dLT)p        1.9367
 Cp, KJ/(KG)(K)    5.5623
 GAMMAs            1.1279
 SON VEL,M/SEC      983.0

 DETONATION PARAMETERS

 P/P1              18.312
 T/T1              11.702
 M/M1              1.1746
 RHO/RHO1          1.8382
 DET MACH NUMBER   5.2112
 DET VEL,M/SEC     1806.8

 MOLE FRACTIONS

 *C              1.0720-9
 *CO             4.9729-1
 *CO2            3.8369-1
 *C2             7.235-15
 C2O             2.260-10
 C3O2            4.870-13
 *O              3.4398-2
 *O2             8.4617-2
 O3              4.0049-7

  * THERMODYNAMIC PROPERTIES FITTED TO 20000.K


                     DETONATION PROPERTIES OF AN IDEAL REACTING GAS
 CASE =                

             REACTANT                       MOLES         ENERGY      TEMP
                                                         KJ/KG-MOL      K
 FUEL        CO                           1.0000000   -110481.283    300.000
 OXIDANT     O2                           0.5000000        54.358    300.000

 O/F=    0.35700  %FUEL= 73.691930  R,EQ.RATIO= 1.230769  PHI,EQ.RATIO= 1.600000

 UNBURNED GAS

 P1, BAR           1.0000
 T1, K             300.00
 H1, KJ/KG       -2906.21
 M1, (1/n)         28.960
 GAMMA1            1.3981
 SON VEL1,M/SEC     347.0

 BURNED GAS

 P, BAR            18.275
 T, K             3502.51
 RHO, KG/CU M    2.1334 0
 H, KJ/KG        -1757.38
 U, KJ/KG        -2614.00
 G, KJ/KG        -31309.4
 S, KJ/(KG)(K)     8.4374

 M, (1/n)          33.996
 (dLV/dLP)t      -1.04879
 (dLV/dLT)p        1.8956
 Cp, KJ/(KG)(K)    5.3981
 GAMMAs            1.1287
 SON VEL,M/SEC      983.3

 DETONATION PARAMETERS

 P/P1              18.275
 T/T1              11.675
 M/M1              1.1739
 RHO/RHO1          1.8375
 DET MACH NUMBER   5.2067
 DET VEL,M/SEC     1806.8

 MOLE FRACTIONS

 *C              1.1119-9
 *CO             5.1505-1
 *CO2            3.7935-1
 *C2             8.151-15
 C2O             2.481-10
 C3O2            5.636-13
 *O              3.1564-2
 *O2             7.4042-2
 O3              3.2268-7

  * THERMODYNAMIC PROPERTIES FITTED TO 20000.K


                     DETONATION PROPERTIES OF AN IDEAL REACTING GAS
 CASE =                

             REACTANT                       MOLES         ENERGY      TEMP
                                                         KJ/KG-MOL      K
 FUEL        CO                           1.0000000   -110481.283    300.000
 OXIDANT     O2                           0.5000000        54.358    300.000

 O/F=    0.33600  %FUEL= 74.850263  R,EQ.RATIO= 1.259259  PHI,EQ.RATIO= 1.700000

 UNBURNED GAS

 P1, BAR           1.0000
 T1, K             300.00
 H1, KJ/KG       -2951.92
 M1, (1/n)         28.917
 GAMMA1            1.3981
 SON VEL1,M/SEC     347.3

 BURNED GAS

 P, BAR            18.231
 T, K             3492.99
 RHO, KG/CU M    2.1293 0
 H, KJ/KG        -1804.14
 U, KJ/KG        -2660.34
 G, KJ/KG        -31284.6
 S, KJ/(KG)(K)     8.4399

 M, (1/n)          33.920
 (dLV/dLP)t      -1.04625
 (dLV/dLT)p        1.8515
 Cp, KJ/(KG)(K)    5.2201
 GAMMAs            1.1296
 SON VEL,M/SEC      983.4

 DETONATION PARAMETERS

 P/P1              18.231
 T/T1              11.643
 M/M1              1.1730
 RHO/RHO1          1.8367
 DET MACH NUMBER   5.2013
 DET VEL,M/SEC     1806.3

 MOLE FRACTIONS

 *C              1.1357-9
 *CO             5.3152-1
 *CO2            3.7492-1
 *C2             8.984-15
 C2O             2.684-10
 C3O2            6.425-13
 *O              2.8843-2
 *O2             6.4718-2
 O3              2.5879-7

  * THERMODYNAMIC PROPERTIES FITTED TO 20000.K


                     DETONATION PROPERTIES OF AN IDEAL REACTING GAS
 CASE =                

             REACTANT                       MOLES         ENERGY      TEMP
                                                         KJ/KG-MOL      K
 FUEL        CO                           1.0000000   -110481.283    300.000
 OXIDANT     O2                           0.5000000        54.358    300.000

 O/F=    0.31733  %FUEL= 75.910896  R,EQ.RATIO= 1.285714  PHI,EQ.RATIO= 1.800000

 UNBURNED GAS

 P1, BAR           1.0000
 T1, K             300.00
 H1, KJ/KG       -2993.77
 M1, (1/n)         28.877
 GAMMA1            1.3982
 SON VEL1,M/SEC     347.5

 BURNED GAS

 P, BAR            18.180
 T, K             3482.10
 RHO, KG/CU M    2.1253 0
 H, KJ/KG        -1847.64
 U, KJ/KG        -2703.02
 G, KJ/KG        -31242.4
 S, KJ/(KG)(K)     8.4417

 M, (1/n)          33.847
 (dLV/dLP)t      -1.04357
 (dLV/dLT)p        1.8050
 Cp, KJ/(KG)(K)    5.0303
 GAMMAs            1.1306
 SON VEL,M/SEC      983.4

 DETONATION PARAMETERS

 P/P1              18.180
 T/T1              11.607
 M/M1              1.1721
 RHO/RHO1          1.8358
 DET MACH NUMBER   5.1950
 DET VEL,M/SEC     1805.4

 MOLE FRACTIONS

 *C              1.1442-9
 *CO             5.4686-1
 *CO2            3.7043-1
 *C2             9.712-15
 C2O             2.865-10
 C3O2            7.231-13
 *O              2.6243-2
 *O2             5.6466-2
 O3              2.0642-7

  * THERMODYNAMIC PROPERTIES FITTED TO 20000.K


                     DETONATION PROPERTIES OF AN IDEAL REACTING GAS
 CASE =                

             REACTANT                       MOLES         ENERGY      TEMP
                                                         KJ/KG-MOL      K
 FUEL        CO                           1.0000000   -110481.283    300.000
 OXIDANT     O2                           0.5000000        54.358    300.000

 O/F=    0.30063  %FUEL= 76.885689  R,EQ.RATIO= 1.310345  PHI,EQ.RATIO= 1.900000

 UNBURNED GAS

 P1, BAR           1.0000
 T1, K             300.00
 H1, KJ/KG       -3032.24
 M1, (1/n)         28.841
 GAMMA1            1.3982
 SON VEL1,M/SEC     347.7

 BURNED GAS

 P, BAR            18.122
 T, K             3469.90
 RHO, KG/CU M    2.1215 0
 H, KJ/KG        -1888.31
 U, KJ/KG        -2742.51
 G, KJ/KG        -31184.0
 S, KJ/(KG)(K)     8.4428

 M, (1/n)          33.775
 (dLV/dLP)t      -1.04079
 (dLV/dLT)p        1.7565
 Cp, KJ/(KG)(K)    4.8302
 GAMMAs            1.1318
 SON VEL,M/SEC      983.3

 DETONATION PARAMETERS

 P/P1              18.122
 T/T1              11.566
 M/M1              1.1711
 RHO/RHO1          1.8348
 DET MACH NUMBER   5.1879
 DET VEL,M/SEC     1804.1

 MOLE FRACTIONS

 *C              1.1382-9
 *CO             5.6120-1
 *CO2            3.6589-1
 *C2             1.032-14
 C2O             3.025-10
 C3O2            8.050-13
 *O              2.3767-2
 *O2             4.9141-2
 O3              1.6358-7

  * THERMODYNAMIC PROPERTIES FITTED TO 20000.K


                     DETONATION PROPERTIES OF AN IDEAL REACTING GAS
 CASE =                

             REACTANT                       MOLES         ENERGY      TEMP
                                                         KJ/KG-MOL      K
 FUEL        CO                           1.0000000   -110481.283    300.000
 OXIDANT     O2                           0.5000000        54.358    300.000

 O/F=    0.28560  %FUEL= 77.784659  R,EQ.RATIO= 1.333333  PHI,EQ.RATIO= 2.000000

 UNBURNED GAS

 P1, BAR           1.0000
 T1, K             300.00
 H1, KJ/KG       -3067.71
 M1, (1/n)         28.808
 GAMMA1            1.3983
 SON VEL1,M/SEC     348.0

 BURNED GAS

 P, BAR            18.057
 T, K             3456.40
 RHO, KG/CU M    2.1177 0
 H, KJ/KG        -1926.53
 U, KJ/KG        -2779.21
 G, KJ/KG        -31110.4
 S, KJ/(KG)(K)     8.4434

 M, (1/n)          33.704
 (dLV/dLP)t      -1.03793
 (dLV/dLT)p        1.7063
 Cp, KJ/(KG)(K)    4.6212
 GAMMAs            1.1331
 SON VEL,M/SEC      983.0

 DETONATION PARAMETERS

 P/P1              18.057
 T/T1              11.521
 M/M1              1.1699
 RHO/RHO1          1.8336
 DET MACH NUMBER   5.1800
 DET VEL,M/SEC     1802.4

 MOLE FRACTIONS

 *C              1.1186-9
 *CO             5.7465-1
 *CO2            3.6131-1
 *C2             1.079-14
 C2O             3.159-10
 C3O2            8.877-13
 *O              2.1417-2
 *O2             4.2626-2
 O3              1.2864-7

  * THERMODYNAMIC PROPERTIES FITTED TO 20000.K



