
 *******************************************************************************

         NASA-GLENN CHEMICAL EQUILIBRIUM PROGRAM CEA2, MAY 21, 2004
                   BY  BONNIE MCBRIDE AND SANFORD GORDON
      REFS: NASA RP-1311, PART I, 1994 AND NASA RP-1311, PART II, 1996

 *******************************************************************************



 problem    phi,eq.ratio=3.7,3.8,3.9,4,
       det   t,k=300,  p,bar=1,
 react
   fuel=H2 moles=1 t,k=300
   oxid=O2 moles=0.5 t,k=300
 output
      trace=1e-16 siunits short
 end


                     DETONATION PROPERTIES OF AN IDEAL REACTING GAS
 CASE =                

             REACTANT                       MOLES         ENERGY      TEMP
                                                         KJ/KG-MOL      K
 FUEL        H2                           1.0000000        53.359    300.000
 OXIDANT     O2                           0.5000000        54.358    300.000

 O/F=    2.14505  %FUEL= 31.796003  R,EQ.RATIO= 3.700000  PHI,EQ.RATIO= 3.700000

 UNBURNED GAS

 P1, BAR           1.0000
 T1, K             300.00
 H1, KJ/KG           9.57
 M1, (1/n)          5.585
 GAMMA1            1.4036
 SON VEL1,M/SEC     791.7

 BURNED GAS

 P, BAR            14.793
 T, K             2805.55
 RHO, KG/CU M    3.9793-1
 H, KJ/KG         4822.57
 U, KJ/KG         1105.12
 G, KJ/KG        -86847.0
 S, KJ/(KG)(K)    32.6744

 M, (1/n)           6.275
 (dLV/dLP)t      -1.00515
 (dLV/dLT)p        1.1039
 Cp, KJ/(KG)(K)    9.4061
 GAMMAs            1.1998
 SON VEL,M/SEC     2111.9

 DETONATION PARAMETERS

 P/P1              14.793
 T/T1               9.352
 M/M1              1.1235
 RHO/RHO1          1.7771
 DET MACH NUMBER   4.7404
 DET VEL,M/SEC     3753.1

 MOLE FRACTIONS

 *H              1.8362-2
 HO2             3.0571-8
 *H2             7.1415-1
 H2O             2.6536-1
 H2O2            2.7991-8
 *O              3.0957-5
 *OH             2.0999-3
 *O2             4.6080-6
 O3              3.217-14

  * THERMODYNAMIC PROPERTIES FITTED TO 20000.K


                     DETONATION PROPERTIES OF AN IDEAL REACTING GAS
 CASE =                

             REACTANT                       MOLES         ENERGY      TEMP
                                                         KJ/KG-MOL      K
 FUEL        H2                           1.0000000        53.359    300.000
 OXIDANT     O2                           0.5000000        54.358    300.000

 O/F=    2.08860  %FUEL= 32.377121  R,EQ.RATIO= 3.800000  PHI,EQ.RATIO= 3.800000

 UNBURNED GAS

 P1, BAR           1.0000
 T1, K             300.00
 H1, KJ/KG           9.72
 M1, (1/n)          5.502
 GAMMA1            1.4037
 SON VEL1,M/SEC     797.7

 BURNED GAS

 P, BAR            14.622
 T, K             2772.24
 RHO, KG/CU M    3.9135-1
 H, KJ/KG         4837.72
 U, KJ/KG         1101.43
 G, KJ/KG        -86846.6
 S, KJ/(KG)(K)    33.0722

 M, (1/n)           6.169
 (dLV/dLP)t      -1.00460
 (dLV/dLT)p        1.0937
 Cp, KJ/(KG)(K)    9.2823
 GAMMAs            1.2035
 SON VEL,M/SEC     2120.5

 DETONATION PARAMETERS

 P/P1              14.622
 T/T1               9.241
 M/M1              1.1212
 RHO/RHO1          1.7741
 DET MACH NUMBER   4.7160
 DET VEL,M/SEC     3762.0

 MOLE FRACTIONS

 *H              1.6510-2
 HO2             2.2085-8
 *H2             7.2275-1
 H2O             2.5895-1
 H2O2            2.1834-8
 *O              2.3242-5
 *OH             1.7683-3
 *O2             3.3438-6
 O3              1.817-14

  * THERMODYNAMIC PROPERTIES FITTED TO 20000.K


                     DETONATION PROPERTIES OF AN IDEAL REACTING GAS
 CASE =                

             REACTANT                       MOLES         ENERGY      TEMP
                                                         KJ/KG-MOL      K
 FUEL        H2                           1.0000000        53.359    300.000
 OXIDANT     O2                           0.5000000        54.358    300.000

 O/F=    2.03505  %FUEL= 32.948420  R,EQ.RATIO= 3.900000  PHI,EQ.RATIO= 3.900000

 UNBURNED GAS

 P1, BAR           1.0000
 T1, K             300.00
 H1, KJ/KG           9.86
 M1, (1/n)          5.423
 GAMMA1            1.4037
 SON VEL1,M/SEC     803.5

 BURNED GAS

 P, BAR            14.452
 T, K             2739.38
 RHO, KG/CU M    3.8505-1
 H, KJ/KG         4850.47
 U, KJ/KG         1097.09
 G, KJ/KG        -86814.0
 S, KJ/(KG)(K)    33.4618

 M, (1/n)           6.068
 (dLV/dLP)t      -1.00410
 (dLV/dLT)p        1.0843
 Cp, KJ/(KG)(K)    9.1685
 GAMMAs            1.2072
 SON VEL,M/SEC     2128.6

 DETONATION PARAMETERS

 P/P1              14.452
 T/T1               9.131
 M/M1              1.1190
 RHO/RHO1          1.7711
 DET MACH NUMBER   4.6918
 DET VEL,M/SEC     3769.9

 MOLE FRACTIONS

 *H              1.4821-2
 HO2             1.5943-8
 *H2             7.3087-1
 H2O             2.5280-1
 H2O2            1.7026-8
 *O              1.7424-5
 *OH             1.4880-3
 *O2             2.4258-6
 O3              1.026-14

  * THERMODYNAMIC PROPERTIES FITTED TO 20000.K


                     DETONATION PROPERTIES OF AN IDEAL REACTING GAS
 CASE =                

             REACTANT                       MOLES         ENERGY      TEMP
                                                         KJ/KG-MOL      K
 FUEL        H2                           1.0000000        53.359    300.000
 OXIDANT     O2                           0.5000000        54.358    300.000

 O/F=    1.98417  %FUEL= 33.510148  R,EQ.RATIO= 4.000000  PHI,EQ.RATIO= 4.000000

 UNBURNED GAS

 P1, BAR           1.0000
 T1, K             300.00
 H1, KJ/KG          10.00
 M1, (1/n)          5.347
 GAMMA1            1.4037
 SON VEL1,M/SEC     809.2

 BURNED GAS

 P, BAR            14.285
 T, K             2706.95
 RHO, KG/CU M    3.7903-1
 H, KJ/KG         4860.96
 U, KJ/KG         1092.15
 G, KJ/KG        -86751.5
 S, KJ/(KG)(K)    33.8434

 M, (1/n)           5.972
 (dLV/dLP)t      -1.00365
 (dLV/dLT)p        1.0759
 Cp, KJ/(KG)(K)    9.0643
 GAMMAs            1.2109
 SON VEL,M/SEC     2136.2

 DETONATION PARAMETERS

 P/P1              14.285
 T/T1               9.023
 M/M1              1.1168
 RHO/RHO1          1.7680
 DET MACH NUMBER   4.6676
 DET VEL,M/SEC     3777.0

 MOLE FRACTIONS

 *H              1.3285-2
 HO2             1.1501-8
 *H2             7.3854-1
 H2O             2.4691-1
 H2O2            1.3273-8
 *O              1.3043-5
 *OH             1.2512-3
 *O2             1.7592-6
 O3              5.784-15

  * THERMODYNAMIC PROPERTIES FITTED TO 20000.K



