
 *******************************************************************************

         NASA-GLENN CHEMICAL EQUILIBRIUM PROGRAM CEA2, MAY 21, 2004
                   BY  BONNIE MCBRIDE AND SANFORD GORDON
      REFS: NASA RP-1311, PART I, 1994 AND NASA RP-1311, PART II, 1996

 *******************************************************************************



 problem    phi,eq.ratio=3.7,3.8,3.9,4,
       det   t,k=300,  p,bar=1,
 react
   fuel=CH4 moles=0.85 t,k=300
   oxid=O2 moles=2.3 t,k=300
   oxid=N2 moles=8.6524 t,k=300
   fuel=C2H6 moles=0.1 t,k=300
   fuel=C3H8 moles=0.05 t,k=300
 output
      trace=1e-16 siunits short
 end


                     DETONATION PROPERTIES OF AN IDEAL REACTING GAS
 CASE =                

             REACTANT                       MOLES         ENERGY      TEMP
                                                         KJ/KG-MOL      K
 FUEL        CH4                          0.8500000    -74533.907    300.000
 OXIDANT     O2                           2.3000000        54.358    300.000
 OXIDANT     N2                           8.6524000        53.881    300.000
 FUEL        C2H6                         0.1000000    -83754.210    300.000
 FUEL        C3H8                         0.0500000   -104543.521    300.000

 O/F=    4.53104  %FUEL= 18.079769  R,EQ.RATIO= 3.700000  PHI,EQ.RATIO= 3.700000

 UNBURNED GAS

 P1, BAR           1.0000
 T1, K             300.00
 H1, KJ/KG        -736.67
 M1, (1/n)         26.325
 GAMMA1            1.3547
 SON VEL1,M/SEC     358.3

 BURNED GAS

 P, BAR            9.6044
 T, K             1192.35
 RHO, KG/CU M    1.8247 0
 H, KJ/KG         -93.248
 U, KJ/KG         -619.60
 G, KJ/KG        -13153.7
 S, KJ/(KG)(K)    10.9536

 M, (1/n)          18.835
 (dLV/dLP)t      -1.03372
 (dLV/dLT)p        1.3996
 Cp, KJ/(KG)(K)    3.9306
 GAMMAs            1.2289
 SON VEL,M/SEC      804.3

 DETONATION PARAMETERS

 P/P1               9.604
 T/T1               3.974
 M/M1              0.7155
 RHO/RHO1          1.7290
 DET MACH NUMBER   3.8812
 DET VEL,M/SEC     1390.6

 MOLE FRACTIONS

 CH2             1.869-15
 CH3             3.3444-8
 CH2OH           4.947-13
 CH3O            1.046-14
 CH4             1.8257-2
 CH3OH           7.7907-9
 *CN             2.516-15
 *CO             1.9087-1
 *CO2            7.6517-3
 COOH            4.368-12
 C2H2,acetylene  2.8329-8
 C2H2,vinylidene 1.620-15
 CH2CO,ketene    3.2911-8
 O(CH)2O         1.375-14
 C2H3,vinyl      2.905-13
 CH3CN           2.7848-7
 CH3CO,acetyl    2.350-12
 C2H4            1.2899-6
 C2H4O,ethylen-o 1.751-15
 CH3CHO,ethanal  2.4652-9
 CH3COOH         3.258-11
 C2H5            2.179-11
 C2H6            7.1477-7
 C2H5OH          4.118-12
 CH3OCH3         4.299-15
 OCCN            3.630-16
 C2N2            2.106-12
 C3H3,2-propynl  1.309-13
 C3H4,allene     1.529-11
 C3H4,propyne    4.993-11
 C3H4,cyclo-     2.067-15
 C3H5,allyl      7.536-13
 C3H6,propylene  1.0666-9
 C3H6,cyclo-     9.246-13
 C3H6O,acetone   1.739-12
 C3H6O,propanal  2.530-13
 C3H7,n-propyl   2.602-15
 C3H7,i-propyl   3.450-15
 C3H8            9.498-11
 C3H8O,1propanol 5.216-16
 C3H8O,2propanol 8.221-16
 C3O2            4.539-13
 C4H2,butadiyne  8.586-16
 C4H6,butadiene  5.544-13
 C4H6,1butyne    7.034-15
 C4H6,2butyne    1.448-14
 C4H6,cyclo-     2.584-16
 C4H8,1-butene   1.330-13
 C4H8,cis2-buten 8.227-14
 C4H8,tr2-butene 9.336-14
 C4H8,isobutene  1.276-13
 C4H10,n-butane  1.253-14
 C4H10,isobutane 5.633-15
 C5H6,1,3cyclo-  6.292-15
 C5H8,cyclo-     1.820-16
 C6H6            2.498-13
 C7H8            3.084-16
 *H              3.2287-8
 HCN             3.0474-5
 HCO             4.301-10
 HCCO            5.993-15
 HNC             1.2023-7
 HNCO            5.1342-7
 *H2             3.4212-1
 HCHO,formaldehy 3.1286-7
 HCOOH           2.5189-8
 H2O             1.8454-2
 NCO             6.593-15
 *NH             9.663-16
 NH2             4.485-11
 NH3             2.4849-4
 NH2OH           1.982-16
 *NO             5.542-14
 *N2             4.2237-1
 N2H2            8.666-16
 N2H4            3.500-16
 *OH             1.643-11

  * THERMODYNAMIC PROPERTIES FITTED TO 20000.K


                     DETONATION PROPERTIES OF AN IDEAL REACTING GAS
 CASE =                

             REACTANT                       MOLES         ENERGY      TEMP
                                                         KJ/KG-MOL      K
 FUEL        CH4                          0.8500000    -74533.907    300.000
 OXIDANT     O2                           2.3000000        54.358    300.000
 OXIDANT     N2                           8.6524000        53.881    300.000
 FUEL        C2H6                         0.1000000    -83754.210    300.000
 FUEL        C3H8                         0.0500000   -104543.521    300.000

 O/F=    4.41181  %FUEL= 18.478120  R,EQ.RATIO= 3.800000  PHI,EQ.RATIO= 3.800000

 UNBURNED GAS

 P1, BAR           1.0000
 T1, K             300.00
 H1, KJ/KG        -752.95
 M1, (1/n)         26.274
 GAMMA1            1.3540
 SON VEL1,M/SEC     358.5

 BURNED GAS

 P, BAR            9.6061
 T, K             1184.26
 RHO, KG/CU M    1.8338 0
 H, KJ/KG         -109.89
 U, KJ/KG         -633.72
 G, KJ/KG        -13100.6
 S, KJ/(KG)(K)    10.9695

 M, (1/n)          18.797
 MW, MOL WT        18.705
 (dLV/dLP)t      -1.03665
 (dLV/dLT)p        1.4509
 Cp, KJ/(KG)(K)    4.4426
 GAMMAs            1.2091
 SON VEL,M/SEC      795.9

 DETONATION PARAMETERS

 P/P1               9.606
 T/T1               3.948
 M/M1              0.7154
 RHO/RHO1          1.7409
 DET MACH NUMBER   3.8646
 DET VEL,M/SEC     1385.5

 MOLE FRACTIONS

 CH2             1.491-15
 CH3             3.1781-8
 CH2OH           4.618-13
 CH3O            9.527-15
 CH4             2.0369-2
 CH3OH           8.3251-9
 *CN             1.915-15
 *CO             1.8678-1
 *CO2            7.9729-3
 COOH            4.042-12
 C2H2,acetylene  2.6208-8
 C2H2,vinylidene 1.321-15
 CH2CO,ketene    3.2381-8
 O(CH)2O         1.324-14
 C2H3,vinyl      2.582-13
 CH3CN           2.8954-7
 CH3CO,acetyl    2.263-12
 C2H4            1.3683-6
 C2H4O,ethylen-o 1.751-15
 CH3CHO,ethanal  2.6658-9
 CH3COOH         3.699-11
 C2H5            2.222-11
 C2H6            8.4335-7
 C2H5OH          4.721-12
 CH3OCH3         4.765-15
 OCCN            2.940-16
 C2N2            1.806-12
 C3H3,2-propynl  1.177-13
 C3H4,allene     1.526-11
 C3H4,propyne    5.007-11
 C3H4,cyclo-     1.946-15
 C3H5,allyl      7.701-13
 C3H6,propylene  1.2145-9
 C3H6,cyclo-     1.029-12
 C3H6O,acetone   2.046-12
 C3H6O,propanal  2.904-13
 C3H7,n-propyl   2.817-15
 C3H7,i-propyl   3.765-15
 C3H8            1.192-10
 C3H8O,1propanol 6.369-16
 C3H8O,2propanol 1.013-15
 C3O2            4.132-13
 C4H2,butadiyne  7.322-16
 C4H6,butadiene  6.122-13
 C4H6,1butyne    7.501-15
 C4H6,2butyne    1.569-14
 C4H6,cyclo-     2.778-16
 C4H8,1-butene   1.612-13
 C4H8,cis2-buten 1.004-13
 C4H8,tr2-butene 1.140-13
 C4H8,isobutene  1.564-13
 C4H10,n-butane  1.673-14
 C4H10,isobutane 7.563-15
 C5H6,1,3cyclo-  7.119-15
 C5H8,cyclo-     2.237-16
 C6H6            3.043-13
 C7H8            4.035-16
 *H              2.7648-8
 HCN             2.8764-5
 HCO             3.810-10
 HCCO            5.011-15
 HNC             1.0869-7
 HNCO            5.0559-7
 *H2             3.4303-1
 HCHO,formaldehy 3.0974-7
 HCOOH           2.6234-8
 H2O             1.9259-2
 NCO             5.428-15
 *NH             7.522-16
 NH2             3.948-11
 NH3             2.5906-4
 NH2OH           1.812-16
 *NO             4.524-14
 *N2             4.1740-1
 N2H2            7.494-16
 N2H4            3.313-16
 *OH             1.403-11
 C(gr)           4.8986-3

  * THERMODYNAMIC PROPERTIES FITTED TO 20000.K


                     DETONATION PROPERTIES OF AN IDEAL REACTING GAS
 CASE =                

             REACTANT                       MOLES         ENERGY      TEMP
                                                         KJ/KG-MOL      K
 FUEL        CH4                          0.8500000    -74533.907    300.000
 OXIDANT     O2                           2.3000000        54.358    300.000
 OXIDANT     N2                           8.6524000        53.881    300.000
 FUEL        C2H6                         0.1000000    -83754.210    300.000
 FUEL        C3H8                         0.0500000   -104543.521    300.000

 O/F=    4.29868  %FUEL= 18.872615  R,EQ.RATIO= 3.900000  PHI,EQ.RATIO= 3.900000

 UNBURNED GAS

 P1, BAR           1.0000
 T1, K             300.00
 H1, KJ/KG        -769.06
 M1, (1/n)         26.224
 GAMMA1            1.3532
 SON VEL1,M/SEC     358.8

 BURNED GAS

 P, BAR            9.5539
 T, K             1176.52
 RHO, KG/CU M    1.8324 0
 H, KJ/KG         -128.84
 U, KJ/KG         -650.23
 G, KJ/KG        -13053.4
 S, KJ/(KG)(K)    10.9855

 M, (1/n)          18.762
 MW, MOL WT        18.555
 (dLV/dLP)t      -1.03866
 (dLV/dLT)p        1.4781
 Cp, KJ/(KG)(K)    4.6346
 GAMMAs            1.2052
 SON VEL,M/SEC      792.7

 DETONATION PARAMETERS

 P/P1               9.554
 T/T1               3.922
 M/M1              0.7154
 RHO/RHO1          1.7429
 DET MACH NUMBER   3.8510
 DET VEL,M/SEC     1381.6

 MOLE FRACTIONS

 CH2             1.157-15
 CH3             2.9152-8
 CH2OH           4.267-13
 CH3O            8.602-15
 CH4             2.1790-2
 CH3OH           8.7558-9
 *CN             1.421-15
 *CO             1.8165-1
 *CO2            8.4473-3
 COOH            3.810-12
 C2H2,acetylene  2.2639-8
 C2H2,vinylidene 1.010-15
 CH2CO,ketene    3.0437-8
 O(CH)2O         1.250-14
 C2H3,vinyl      2.142-13
 CH3CN           2.7881-7
 CH3CO,acetyl    2.080-12
 C2H4            1.3447-6
 C2H4O,ethylen-o 1.666-15
 CH3CHO,ethanal  2.7365-9
 CH3COOH         4.080-11
 C2H5            2.097-11
 C2H6            9.1575-7
 C2H5OH          5.110-12
 CH3OCH3         4.991-15
 OCCN            2.289-16
 C2N2            1.447-12
 C3H3,2-propynl  9.523-14
 C3H4,allene     1.365-11
 C3H4,propyne    4.497-11
 C3H4,cyclo-     1.644-15
 C3H5,allyl      7.032-13
 C3H6,propylene  1.2293-9
 C3H6,cyclo-     1.018-12
 C3H6O,acetone   2.192-12
 C3H6O,propanal  3.036-13
 C3H7,n-propyl   2.711-15
 C3H7,i-propyl   3.650-15
 C3H8            1.322-10
 C3H8O,1propanol 7.046-16
 C3H8O,2propanol 1.131-15
 C3O2            3.575-13
 C4H2,butadiyne  5.441-16
 C4H6,butadiene  5.803-13
 C4H6,1butyne    6.874-15
 C4H6,2butyne    1.461-14
 C4H6,cyclo-     2.566-16
 C4H8,1-butene   1.666-13
 C4H8,cis2-buten 1.045-13
 C4H8,tr2-butene 1.187-13
 C4H8,isobutene  1.634-13
 C4H10,n-butane  1.892-14
 C4H10,isobutane 8.604-15
 C5H6,1,3cyclo-  6.666-15
 C5H8,cyclo-     2.261-16
 C6H6            2.953-13
 C7H8            4.035-16
 *H              2.3849-8
 HCN             2.6231-5
 HCO             3.358-10
 HCCO            4.030-15
 HNC             9.5053-8
 HNCO            4.9246-7
 *H2             3.4415-1
 HCHO,formaldehy 3.0358-7
 HCOOH           2.7685-8
 H2O             2.0590-2
 NCO             4.452-15
 *NH             5.898-16
 NH2             3.481-11
 NH3             2.6869-4
 NH2OH           1.697-16
 *NO             3.814-14
 *N2             4.1204-1
 N2H2            6.477-16
 N2H4            3.115-16
 *OH             1.238-11
 C(gr)           1.1027-2

  * THERMODYNAMIC PROPERTIES FITTED TO 20000.K


                     DETONATION PROPERTIES OF AN IDEAL REACTING GAS
 CASE =                

             REACTANT                       MOLES         ENERGY      TEMP
                                                         KJ/KG-MOL      K
 FUEL        CH4                          0.8500000    -74533.907    300.000
 OXIDANT     O2                           2.3000000        54.358    300.000
 OXIDANT     N2                           8.6524000        53.881    300.000
 FUEL        C2H6                         0.1000000    -83754.210    300.000
 FUEL        C3H8                         0.0500000   -104543.521    300.000

 O/F=    4.19122  %FUEL= 19.263310  R,EQ.RATIO= 4.000000  PHI,EQ.RATIO= 4.000000

 UNBURNED GAS

 P1, BAR           1.0000
 T1, K             300.00
 H1, KJ/KG        -785.02
 M1, (1/n)         26.174
 GAMMA1            1.3524
 SON VEL1,M/SEC     359.0

 BURNED GAS

 P, BAR            9.5031
 T, K             1169.20
 RHO, KG/CU M    1.8308 0
 H, KJ/KG         -147.64
 U, KJ/KG         -666.71
 G, KJ/KG        -13010.0
 S, KJ/(KG)(K)    11.0010

 M, (1/n)          18.728
 MW, MOL WT        18.411
 (dLV/dLP)t      -1.04061
 (dLV/dLT)p        1.5046
 Cp, KJ/(KG)(K)    4.8228
 GAMMAs            1.2016
 SON VEL,M/SEC      789.8

 DETONATION PARAMETERS

 P/P1               9.503
 T/T1               3.897
 M/M1              0.7155
 RHO/RHO1          1.7447
 DET MACH NUMBER   3.8381
 DET VEL,M/SEC     1377.9

 MOLE FRACTIONS

 CH2             9.070-16
 CH3             2.6827-8
 CH2OH           3.950-13
 CH3O            7.787-15
 CH4             2.3232-2
 CH3OH           9.1734-9
 *CN             1.067-15
 *CO             1.7666-1
 *CO2            8.9066-3
 COOH            3.591-12
 C2H2,acetylene  1.9672-8
 C2H2,vinylidene 7.805-16
 CH2CO,ketene    2.8642-8
 O(CH)2O         1.179-14
 C2H3,vinyl      1.790-13
 CH3CN           2.6876-7
 CH3CO,acetyl    1.915-12
 C2H4            1.3219-6
 C2H4O,ethylen-o 1.585-15
 CH3CHO,ethanal  2.8011-9
 CH3COOH         4.470-11
 C2H5            1.984-11
 C2H6            9.9019-7
 C2H5OH          5.502-12
 CH3OCH3         5.208-15
 OCCN            1.799-16
 C2N2            1.170-12
 C3H3,2-propynl  7.771-14
 C3H4,allene     1.225-11
 C3H4,propyne    4.054-11
 C3H4,cyclo-     1.398-15
 C3H5,allyl      6.441-13
 C3H6,propylene  1.2427-9
 C3H6,cyclo-     1.007-12
 C3H6O,acetone   2.336-12
 C3H6O,propanal  3.162-13
 C3H7,n-propyl   2.610-15
 C3H7,i-propyl   3.540-15
 C3H8            1.458-10
 C3H8O,1propanol 7.745-16
 C3H8O,2propanol 1.254-15
 C3O2            3.104-13
 C4H2,butadiyne  4.093-16
 C4H6,butadiene  5.509-13
 C4H6,1butyne    6.318-15
 C4H6,2butyne    1.363-14
 C4H6,cyclo-     2.376-16
 C4H8,1-butene   1.718-13
 C4H8,cis2-buten 1.085-13
 C4H8,tr2-butene 1.233-13
 C4H8,isobutene  1.703-13
 C4H10,n-butane  2.127-14
 C4H10,isobutane 9.724-15
 C5H6,1,3cyclo-  6.255-15
 C5H8,cyclo-     2.283-16
 C6H6            2.867-13
 C7H8            4.031-16
 *H              2.0697-8
 HCN             2.4008-5
 HCO             2.972-10
 HCCO            3.266-15
 HNC             8.3575-8
 HNCO            4.7950-7
 *H2             3.4514-1
 HCHO,formaldehy 2.9735-7
 HCOOH           2.9074-8
 H2O             2.1919-2
 NCO             3.678-15
 *NH             4.671-16
 NH2             3.085-11
 NH3             2.7810-4
 NH2OH           1.591-16
 *NO             3.235-14
 *N2             4.0687-1
 N2H2            5.630-16
 N2H4            2.935-16
 *OH             1.096-11
 C(gr)           1.6973-2

  * THERMODYNAMIC PROPERTIES FITTED TO 20000.K



