
 *******************************************************************************

         NASA-GLENN CHEMICAL EQUILIBRIUM PROGRAM CEA2, MAY 21, 2004
                   BY  BONNIE MCBRIDE AND SANFORD GORDON
      REFS: NASA RP-1311, PART I, 1994 AND NASA RP-1311, PART II, 1996

 *******************************************************************************



 problem    phi,eq.ratio=0.5,0.6,0.7,0.8,0.9,1,1.1,1.2,1.3,1.4,1.5,1.6,1.7,1.8,1.
 9,2,
       det   t,k=300,  p,bar=1,
 react
   fuel=CH4 moles=0.85 t,k=300
   oxid=O2 moles=2.3 t,k=300
   fuel=C2H6 moles=0.1 t,k=300
   fuel=C3H8 moles=0.05 t,k=300
 output
      trace=1e-16 siunits short
 end


                     DETONATION PROPERTIES OF AN IDEAL REACTING GAS
 CASE =                

             REACTANT                       MOLES         ENERGY      TEMP
                                                         KJ/KG-MOL      K
 FUEL        CH4                          0.8500000    -74533.907    300.000
 OXIDANT     O2                           2.3000000        54.358    300.000
 FUEL        C2H6                         0.1000000    -83754.210    300.000
 FUEL        C3H8                         0.0500000   -104543.521    300.000

 O/F=    7.80965  %FUEL= 11.351192  R,EQ.RATIO= 0.500000  PHI,EQ.RATIO= 0.500000

 UNBURNED GAS

 P1, BAR           1.0000
 T1, K             300.00
 H1, KJ/KG        -461.97
 M1, (1/n)         29.650
 GAMMA1            1.3638
 SON VEL1,M/SEC     338.7

 BURNED GAS

 P, BAR            24.035
 T, K             3445.87
 RHO, KG/CU M    2.1965 0
 H, KJ/KG         1031.33
 U, KJ/KG         -62.905
 G, KJ/KG        -35166.1
 S, KJ/(KG)(K)    10.5046

 M, (1/n)          26.183
 (dLV/dLP)t      -1.04080
 (dLV/dLT)p        1.7551
 Cp, KJ/(KG)(K)    6.2646
 GAMMAs            1.1304
 SON VEL,M/SEC     1112.2

 DETONATION PARAMETERS

 P/P1              24.035
 T/T1              11.486
 M/M1              0.8831
 RHO/RHO1          1.8478
 DET MACH NUMBER   6.0672
 DET VEL,M/SEC     2055.1

 MOLE FRACTIONS

 *C              3.246-11
 *CH             4.675-12
 CH2             2.743-12
 CH3             1.400-12
 CH2OH           1.902-12
 CH3O            5.846-13
 CH4             1.223-13
 CH3OH           4.175-14
 *CO             6.0284-2
 *CO2            1.2894-1
 COOH            3.1031-6
 C2H             1.141-16
 C2H2,acetylene  4.381-16
 CH2CO,ketene    2.333-14
 O(CH)2O         1.619-15
 HO(CO)2OH       1.051-14
 C2O             1.322-12
 C3O2            5.328-16
 *H              1.3199-2
 HCO             9.7691-7
 HCCO            4.653-14
 HO2             4.6816-4
 *H2             1.5359-2
 HCHO,formaldehy 9.3514-9
 HCOOH           1.5012-7
 H2O             2.6930-1
 H2O2            2.4522-5
 *O              5.1748-2
 *OH             1.1080-1
 *O2             3.4987-1
 O3              3.4216-6

  * THERMODYNAMIC PROPERTIES FITTED TO 20000.K


                     DETONATION PROPERTIES OF AN IDEAL REACTING GAS
 CASE =                

             REACTANT                       MOLES         ENERGY      TEMP
                                                         KJ/KG-MOL      K
 FUEL        CH4                          0.8500000    -74533.907    300.000
 OXIDANT     O2                           2.3000000        54.358    300.000
 FUEL        C2H6                         0.1000000    -83754.210    300.000
 FUEL        C3H8                         0.0500000   -104543.521    300.000

 O/F=    6.50804  %FUEL= 13.319057  R,EQ.RATIO= 0.600000  PHI,EQ.RATIO= 0.600000

 UNBURNED GAS

 P1, BAR           1.0000
 T1, K             300.00
 H1, KJ/KG        -542.35
 M1, (1/n)         29.278
 GAMMA1            1.3593
 SON VEL1,M/SEC     340.3

 BURNED GAS

 P, BAR            25.599
 T, K             3543.88
 RHO, KG/CU M    2.1724 0
 H, KJ/KG         1071.73
 U, KJ/KG         -106.65
 G, KJ/KG        -37783.5
 S, KJ/(KG)(K)    10.9640

 M, (1/n)          25.005
 (dLV/dLP)t      -1.05070
 (dLV/dLT)p        1.9061
 Cp, KJ/(KG)(K)    7.3096
 GAMMAs            1.1294
 SON VEL,M/SEC     1153.6

 DETONATION PARAMETERS

 P/P1              25.599
 T/T1              11.813
 M/M1              0.8541
 RHO/RHO1          1.8508
 DET MACH NUMBER   6.2740
 DET VEL,M/SEC     2135.1

 MOLE FRACTIONS

 *C              1.137-10
 *CH             1.856-11
 CH2             1.129-11
 CH3             5.816-12
 CH2OH           6.095-12
 CH3O            1.971-12
 CH4             5.360-13
 CH3OH           1.438-13
 *CO             8.4989-2
 *CO2            1.2705-1
 COOH            4.6337-6
 C2H             8.228-16
 C2H2,acetylene  2.915-15
 CH2CO,ketene    1.072-13
 O(CH)2O         5.825-15
 HO(CO)2OH       1.918-14
 C2O             5.196-12
 C3O2            2.467-15
 *H              1.9762-2
 HCO             2.0382-6
 HCCO            2.082-13
 HO2             4.6635-4
 *H2             2.3488-2
 HCHO,formaldehy 2.1584-8
 HCOOH           2.4692-7
 H2O             2.9294-1
 H2O2            2.7005-5
 *O              5.6501-2
 *OH             1.2434-1
 *O2             2.7042-1
 O3              2.8744-6

  * THERMODYNAMIC PROPERTIES FITTED TO 20000.K


                     DETONATION PROPERTIES OF AN IDEAL REACTING GAS
 CASE =                

             REACTANT                       MOLES         ENERGY      TEMP
                                                         KJ/KG-MOL      K
 FUEL        CH4                          0.8500000    -74533.907    300.000
 OXIDANT     O2                           2.3000000        54.358    300.000
 FUEL        C2H6                         0.1000000    -83754.210    300.000
 FUEL        C3H8                         0.0500000   -104543.521    300.000

 O/F=    5.57832  %FUEL= 15.201451  R,EQ.RATIO= 0.700000  PHI,EQ.RATIO= 0.700000

 UNBURNED GAS

 P1, BAR           1.0000
 T1, K             300.00
 H1, KJ/KG        -619.24
 M1, (1/n)         28.930
 GAMMA1            1.3553
 SON VEL1,M/SEC     341.8

 BURNED GAS

 P, BAR            26.986
 T, K             3616.93
 RHO, KG/CU M    2.1487 0
 H, KJ/KG         1105.73
 U, KJ/KG         -150.21
 G, KJ/KG        -40093.7
 S, KJ/(KG)(K)    11.3907

 M, (1/n)          23.945
 (dLV/dLP)t      -1.05878
 (dLV/dLT)p        2.0233
 Cp, KJ/(KG)(K)    8.2002
 GAMMAs            1.1294
 SON VEL,M/SEC     1191.0

 DETONATION PARAMETERS

 P/P1              26.986
 T/T1              12.056
 M/M1              0.8277
 RHO/RHO1          1.8526
 DET MACH NUMBER   6.4546
 DET VEL,M/SEC     2206.4

 MOLE FRACTIONS

 *C              2.911-10
 *CH             5.330-11
 CH2             3.410-11
 CH3             1.815-11
 CH2OH           1.520-11
 CH3O            5.101-12
 CH4             1.785-12
 CH3OH           3.873-13
 CH3OOH          1.260-16
 *CO             1.0960-1
 *CO2            1.2214-1
 COOH            6.1392-6
 *C2             4.242-16
 C2H             3.825-15
 C2H2,acetylene  1.314-14
 C2H2,vinylidene 1.329-16
 CH2CO,ketene    3.569-13
 O(CH)2O         1.568-14
 HO(CO)2OH       2.945-14
 CH3CO,acetyl    2.005-16
 C2O             1.471-11
 C3O2            7.999-15
 *H              2.6789-2
 HCO             3.5618-6
 HCCO            6.628-13
 HO2             4.3731-4
 *H2             3.3154-2
 HCHO,formaldehy 4.1581-8
 HCOOH           3.5953-7
 H2O             3.1207-1
 H2O2            2.7898-5
 *O              5.7344-2
 *OH             1.3200-1
 *O2             2.0642-1
 O3              2.2422-6

  * THERMODYNAMIC PROPERTIES FITTED TO 20000.K


                     DETONATION PROPERTIES OF AN IDEAL REACTING GAS
 CASE =                

             REACTANT                       MOLES         ENERGY      TEMP
                                                         KJ/KG-MOL      K
 FUEL        CH4                          0.8500000    -74533.907    300.000
 OXIDANT     O2                           2.3000000        54.358    300.000
 FUEL        C2H6                         0.1000000    -83754.210    300.000
 FUEL        C3H8                         0.0500000   -104543.521    300.000

 O/F=    4.88103  %FUEL= 17.003826  R,EQ.RATIO= 0.800000  PHI,EQ.RATIO= 0.800000

 UNBURNED GAS

 P1, BAR           1.0000
 T1, K             300.00
 H1, KJ/KG        -692.86
 M1, (1/n)         28.605
 GAMMA1            1.3516
 SON VEL1,M/SEC     343.3

 BURNED GAS

 P, BAR            28.233
 T, K             3671.81
 RHO, KG/CU M    2.1258 0
 H, KJ/KG         1134.99
 U, KJ/KG         -193.09
 G, KJ/KG        -42150.8
 S, KJ/(KG)(K)    11.7887

 M, (1/n)          22.988
 (dLV/dLP)t      -1.06502
 (dLV/dLT)p        2.1094
 Cp, KJ/(KG)(K)    8.9429
 GAMMAs            1.1299
 SON VEL,M/SEC     1225.0

 DETONATION PARAMETERS

 P/P1              28.233
 T/T1              12.239
 M/M1              0.8036
 RHO/RHO1          1.8537
 DET MACH NUMBER   6.6143
 DET VEL,M/SEC     2270.7

 MOLE FRACTIONS

 *C              6.077-10
 *CH             1.240-10
 CH2             8.439-11
 CH3             4.715-11
 CH2OH           3.221-11
 CH3O            1.110-11
 CH4             4.985-12
 CH3OH           8.898-13
 CH3OOH          2.664-16
 *CO             1.3348-1
 *CO2            1.1537-1
 COOH            7.5017-6
 *C2             1.427-15
 C2H             1.342-14
 C2H2,acetylene  4.622-14
 C2H2,vinylidene 5.082-16
 CH2CO,ketene    9.668-13
 O(CH)2O         3.491-14
 HO(CO)2OH       4.020-14
 CH3CO,acetyl    6.588-16
 C2O             3.371-11
 C3O2            2.062-14
 *H              3.4013-2
 HCO             5.5447-6
 HCCO            1.695-12
 HO2             3.9120-4
 *H2             4.4443-2
 HCHO,formaldehy 7.1237-8
 HCOOH           4.8238-7
 H2O             3.2724-1
 H2O2            2.7449-5
 *O              5.5229-2
 *OH             1.3465-1
 *O2             1.5513-1
 O3              1.6441-6

  * THERMODYNAMIC PROPERTIES FITTED TO 20000.K


                     DETONATION PROPERTIES OF AN IDEAL REACTING GAS
 CASE =                

             REACTANT                       MOLES         ENERGY      TEMP
                                                         KJ/KG-MOL      K
 FUEL        CH4                          0.8500000    -74533.907    300.000
 OXIDANT     O2                           2.3000000        54.358    300.000
 FUEL        C2H6                         0.1000000    -83754.210    300.000
 FUEL        C3H8                         0.0500000   -104543.521    300.000

 O/F=    4.33869  %FUEL= 18.731177  R,EQ.RATIO= 0.900000  PHI,EQ.RATIO= 0.900000

 UNBURNED GAS

 P1, BAR           1.0000
 T1, K             300.00
 H1, KJ/KG        -763.42
 M1, (1/n)         28.300
 GAMMA1            1.3482
 SON VEL1,M/SEC     344.7

 BURNED GAS

 P, BAR            29.357
 T, K             3712.10
 RHO, KG/CU M    2.1039 0
 H, KJ/KG         1160.16
 U, KJ/KG         -235.19
 G, KJ/KG        -43982.4
 S, KJ/(KG)(K)    12.1609

 M, (1/n)          22.119
 (dLV/dLP)t      -1.06937
 (dLV/dLT)p        2.1654
 Cp, KJ/(KG)(K)    9.5332
 GAMMAs            1.1306
 SON VEL,M/SEC     1256.0

 DETONATION PARAMETERS

 P/P1              29.357
 T/T1              12.374
 M/M1              0.7816
 RHO/RHO1          1.8544
 DET MACH NUMBER   6.7566
 DET VEL,M/SEC     2329.1

 MOLE FRACTIONS

 *C              1.0967-9
 *CH             2.485-10
 CH2             1.816-10
 CH3             1.079-10
 CH2OH           6.080-11
 CH3O            2.136-11
 CH4             1.236-11
 CH3OH           1.829-12
 CH3OOH          4.926-16
 *CO             1.5630-1
 *CO2            1.0747-1
 COOH            8.6337-6
 *C2             3.887-15
 C2H             3.870-14
 C2H2,acetylene  1.372-13
 C2H2,vinylidene 1.601-15
 CH2CO,ketene    2.273-12
 O(CH)2O         6.805-14
 HO(CO)2OH       5.029-14
 CH3CO,acetyl    1.827-15
 C2O             6.657-11
 C3O2            4.537-14
 *H              4.1183-2
 HCO             7.9520-6
 HCCO            3.721-12
 HO2             3.3572-4
 *H2             5.7485-2
 HCHO,formaldehy 1.1244-7
 HCOOH           6.0999-7
 H2O             3.3883-1
 H2O2            2.5912-5
 *O              5.0957-2
 *OH             1.3302-1
 *O2             1.1437-1
 O3              1.1371-6

  * THERMODYNAMIC PROPERTIES FITTED TO 20000.K


                     DETONATION PROPERTIES OF AN IDEAL REACTING GAS
 CASE =                

             REACTANT                       MOLES         ENERGY      TEMP
                                                         KJ/KG-MOL      K
 FUEL        CH4                          0.8500000    -74533.907    300.000
 OXIDANT     O2                           2.3000000        54.358    300.000
 FUEL        C2H6                         0.1000000    -83754.210    300.000
 FUEL        C3H8                         0.0500000   -104543.521    300.000

 O/F=    3.90482  %FUEL= 20.388093  R,EQ.RATIO= 1.000000  PHI,EQ.RATIO= 1.000000

 UNBURNED GAS

 P1, BAR           1.0000
 T1, K             300.00
 H1, KJ/KG        -831.10
 M1, (1/n)         28.014
 GAMMA1            1.3450
 SON VEL1,M/SEC     346.1

 BURNED GAS

 P, BAR            30.368
 T, K             3739.67
 RHO, KG/CU M    2.0829 0
 H, KJ/KG         1181.35
 U, KJ/KG         -276.60
 G, KJ/KG        -45601.0
 S, KJ/(KG)(K)    12.5097

 M, (1/n)          21.327
 (dLV/dLP)t      -1.07166
 (dLV/dLT)p        2.1902
 Cp, KJ/(KG)(K)    9.9537
 GAMMAs            1.1315
 SON VEL,M/SEC     1284.4

 DETONATION PARAMETERS

 P/P1              30.368
 T/T1              12.466
 M/M1              0.7613
 RHO/RHO1          1.8547
 DET MACH NUMBER   6.8834
 DET VEL,M/SEC     2382.1

 MOLE FRACTIONS

 *C              1.7679-9
 *CH             4.442-10
 CH2             3.519-10
 CH3             2.254-10
 CH2OH           1.053-10
 CH3O            3.747-11
 CH4             2.814-11
 CH3OH           3.467-12
 CH3OOH          8.207-16
 *CO             1.7783-1
 *CO2            9.8983-2
 COOH            9.4729-6
 *C2             9.027-15
 C2H             9.652-14
 C2H2,acetylene  3.608-13
 C2H2,vinylidene 4.382-15
 CH2CO,ketene    4.820-12
 O(CH)2O         1.201-13
 HO(CO)2OH       5.871-14
 C2H3,vinyl      2.160-16
 CH3CO,acetyl    4.477-15
 C2O             1.176-10
 C3O2            8.886-14
 *H              4.8036-2
 HCO             1.0716-5
 HCCO            7.294-12
 HO2             2.7682-4
 *H2             7.2440-2
 HCHO,formaldehy 1.6702-7
 HCOOH           7.3692-7
 H2O             3.4704-1
 H2O2            2.3543-5
 *O              4.5219-2
 *OH             1.2773-1
 *O2             8.2394-2
 O3              7.4094-7

  * THERMODYNAMIC PROPERTIES FITTED TO 20000.K


                     DETONATION PROPERTIES OF AN IDEAL REACTING GAS
 CASE =                

             REACTANT                       MOLES         ENERGY      TEMP
                                                         KJ/KG-MOL      K
 FUEL        CH4                          0.8500000    -74533.907    300.000
 OXIDANT     O2                           2.3000000        54.358    300.000
 FUEL        C2H6                         0.1000000    -83754.210    300.000
 FUEL        C3H8                         0.0500000   -104543.521    300.000

 O/F=    3.54984  %FUEL= 21.978797  R,EQ.RATIO= 1.100000  PHI,EQ.RATIO= 1.100000

 UNBURNED GAS

 P1, BAR           1.0000
 T1, K             300.00
 H1, KJ/KG        -896.08
 M1, (1/n)         27.744
 GAMMA1            1.3421
 SON VEL1,M/SEC     347.4

 BURNED GAS

 P, BAR            31.270
 T, K             3755.39
 RHO, KG/CU M    2.0629 0
 H, KJ/KG         1198.30
 U, KJ/KG         -317.52
 G, KJ/KG        -47009.3
 S, KJ/(KG)(K)    12.8369

 M, (1/n)          20.599
 (dLV/dLP)t      -1.07166
 (dLV/dLT)p        2.1814
 Cp, KJ/(KG)(K)   10.1752
 GAMMAs            1.1326
 SON VEL,M/SEC     1310.3

 DETONATION PARAMETERS

 P/P1              31.270
 T/T1              12.518
 M/M1              0.7425
 RHO/RHO1          1.8547
 DET MACH NUMBER   6.9958
 DET VEL,M/SEC     2430.1

 MOLE FRACTIONS

 *C              2.5949-9
 *CH             7.232-10
 CH2             6.277-10
 CH3             4.389-10
 CH2OH           1.702-10
 CH3O            6.104-11
 CH4             6.022-11
 CH3OH           6.175-12
 CH3OOH          1.254-15
 *CO             1.9796-1
 *CO2            9.0272-2
 COOH            9.9792-6
 *C2             1.844-14
 C2H             2.149-13
 C2H2,acetylene  8.659-13
 C2H2,vinylidene 1.076-14
 CH2CO,ketene    9.458-12
 O(CH)2O         1.962-13
 HO(CO)2OH       6.469-14
 C2H3,vinyl      5.891-16
 CH3CO,acetyl    9.973-15
 CH3CHO,ethanal  1.309-16
 C2O             1.900-10
 C3O2            1.591-13
 *H              5.4276-2
 HCO             1.3734-5
 HCCO            1.308-11
 HO2             2.1912-4
 *H2             8.9482-2
 HCHO,formaldehy 2.3669-7
 HCOOH           8.5780-7
 H2O             3.5201-1
 H2O2            2.0600-5
 *O              3.8621-2
 *OH             1.1937-1
 *O2             5.7747-2
 O3              4.5295-7

  * THERMODYNAMIC PROPERTIES FITTED TO 20000.K


                     DETONATION PROPERTIES OF AN IDEAL REACTING GAS
 CASE =                

             REACTANT                       MOLES         ENERGY      TEMP
                                                         KJ/KG-MOL      K
 FUEL        CH4                          0.8500000    -74533.907    300.000
 OXIDANT     O2                           2.3000000        54.358    300.000
 FUEL        C2H6                         0.1000000    -83754.210    300.000
 FUEL        C3H8                         0.0500000   -104543.521    300.000

 O/F=    3.25402  %FUEL= 23.507179  R,EQ.RATIO= 1.200000  PHI,EQ.RATIO= 1.200000

 UNBURNED GAS

 P1, BAR           1.0000
 T1, K             300.00
 H1, KJ/KG        -958.51
 M1, (1/n)         27.490
 GAMMA1            1.3394
 SON VEL1,M/SEC     348.6

 BURNED GAS

 P, BAR            32.058
 T, K             3759.47
 RHO, KG/CU M    2.0436 0
 H, KJ/KG         1210.45
 U, KJ/KG         -358.26
 G, KJ/KG        -48203.9
 S, KJ/(KG)(K)    13.1440

 M, (1/n)          19.926
 (dLV/dLP)t      -1.06920
 (dLV/dLT)p        2.1366
 Cp, KJ/(KG)(K)   10.1659
 GAMMAs            1.1340
 SON VEL,M/SEC     1333.8

 DETONATION PARAMETERS

 P/P1              32.058
 T/T1              12.532
 M/M1              0.7249
 RHO/RHO1          1.8543
 DET MACH NUMBER   7.0943
 DET VEL,M/SEC     2473.2

 MOLE FRACTIONS

 *C              3.5047-9
 *CH             1.0858-9
 CH2             1.0441-9
 CH3             8.082-10
 CH2OH           2.599-10
 CH3O            9.339-11
 CH4             1.230-10
 CH3OH           1.046-11
 CH3OOH          1.777-15
 *CO             2.1658-1
 *CO2            8.1618-2
 COOH            1.0135-5
 *C2             3.376-14
 C2H             4.352-13
 C2H2,acetylene  1.935-12
 C2H2,vinylidene 2.418-14
 CH2CO,ketene    1.746-11
 O(CH)2O         3.006-13
 HO(CO)2OH       6.776-14
 C2H3,vinyl      1.473-15
 CH3CO,acetyl    2.059-14
 C2H4            2.625-16
 CH3CHO,ethanal  2.999-16
 CH3COOH         1.773-16
 C2O             2.848-10
 C3O2            2.653-13
 *H              5.9576-2
 HCO             1.6864-5
 HCCO            2.180-11
 HO2             1.6608-4
 *H2             1.0877-1
 HCHO,formaldehy 3.2278-7
 HCOOH           9.6738-7
 H2O             3.5381-1
 H2O2            1.7340-5
 *O              3.1706-2
 *OH             1.0854-1
 *O2             3.9194-2
 O3              2.5820-7

  * THERMODYNAMIC PROPERTIES FITTED TO 20000.K


                     DETONATION PROPERTIES OF AN IDEAL REACTING GAS
 CASE =                

             REACTANT                       MOLES         ENERGY      TEMP
                                                         KJ/KG-MOL      K
 FUEL        CH4                          0.8500000    -74533.907    300.000
 OXIDANT     O2                           2.3000000        54.358    300.000
 FUEL        C2H6                         0.1000000    -83754.210    300.000
 FUEL        C3H8                         0.0500000   -104543.521    300.000

 O/F=    3.00371  %FUEL= 24.976831  R,EQ.RATIO= 1.300000  PHI,EQ.RATIO= 1.300000

 UNBURNED GAS

 P1, BAR           1.0000
 T1, K             300.00
 H1, KJ/KG       -1018.54
 M1, (1/n)         27.250
 GAMMA1            1.3369
 SON VEL1,M/SEC     349.8

 BURNED GAS

 P, BAR            32.728
 T, K             3751.78
 RHO, KG/CU M    2.0249 0
 H, KJ/KG         1217.02
 U, KJ/KG         -399.22
 G, KJ/KG        -49177.3
 S, KJ/(KG)(K)    13.4321

 M, (1/n)          19.300
 (dLV/dLP)t      -1.06434
 (dLV/dLT)p        2.0564
 Cp, KJ/(KG)(K)    9.9079
 GAMMAs            1.1358
 SON VEL,M/SEC     1354.9

 DETONATION PARAMETERS

 P/P1              32.728
 T/T1              12.506
 M/M1              0.7083
 RHO/RHO1          1.8536
 DET MACH NUMBER   7.1788
 DET VEL,M/SEC     2511.3

 MOLE FRACTIONS

 *C              4.3777-9
 *CH             1.5126-9
 CH2             1.6323-9
 CH3             1.4203-9
 CH2OH           3.774-10
 CH3O            1.351-10
 CH4             2.421-10
 CH3OH           1.700-11
 CH3OOH          2.348-15
 *CO             2.3365-1
 *CO2            7.3237-2
 COOH            9.9444-6
 *C2             5.598-14
 C2H             8.119-13
 C2H2,acetylene  4.083-12
 C2H2,vinylidene 5.046-14
 CH2CO,ketene    3.067-11
 O(CH)2O         4.358-13
 HO(CO)2OH       6.779-14
 C2H3,vinyl      3.425-15
 CH3CO,acetyl    3.988-14
 C2H4            6.861-16
 CH3CHO,ethanal  6.497-16
 CH3COOH         3.190-16
 C2O             3.996-10
 C3O2            4.167-13
 *H              6.3590-2
 HCO             1.9927-5
 HCCO            3.411-11
 HO2             1.2011-4
 *H2             1.3041-1
 HCHO,formaldehy 4.2604-7
 HCOOH           1.0607-6
 H2O             3.5244-1
 H2O2            1.4010-5
 *O              2.4955-2
 *OH             9.5920-2
 *O2             2.5638-2
 O3              1.3625-7

  * THERMODYNAMIC PROPERTIES FITTED TO 20000.K


                     DETONATION PROPERTIES OF AN IDEAL REACTING GAS
 CASE =                

             REACTANT                       MOLES         ENERGY      TEMP
                                                         KJ/KG-MOL      K
 FUEL        CH4                          0.8500000    -74533.907    300.000
 OXIDANT     O2                           2.3000000        54.358    300.000
 FUEL        C2H6                         0.1000000    -83754.210    300.000
 FUEL        C3H8                         0.0500000   -104543.521    300.000

 O/F=    2.78916  %FUEL= 26.391076  R,EQ.RATIO= 1.400000  PHI,EQ.RATIO= 1.400000

 UNBURNED GAS

 P1, BAR           1.0000
 T1, K             300.00
 H1, KJ/KG       -1076.31
 M1, (1/n)         27.023
 GAMMA1            1.3346
 SON VEL1,M/SEC     351.0

 BURNED GAS

 P, BAR            33.270
 T, K             3732.01
 RHO, KG/CU M    2.0067 0
 H, KJ/KG         1217.10
 U, KJ/KG         -440.85
 G, KJ/KG        -49920.5
 S, KJ/(KG)(K)    13.7025

 M, (1/n)          18.716
 (dLV/dLP)t      -1.05750
 (dLV/dLT)p        1.9468
 Cp, KJ/(KG)(K)    9.4168
 GAMMAs            1.1380
 SON VEL,M/SEC     1373.6

 DETONATION PARAMETERS

 P/P1              33.270
 T/T1              12.440
 M/M1              0.6926
 RHO/RHO1          1.8523
 DET MACH NUMBER   7.2491
 DET VEL,M/SEC     2544.3

 MOLE FRACTIONS

 *C              5.0651-9
 *CH             1.9605-9
 CH2             2.4082-9
 CH3             2.3956-9
 CH2OH           5.232-10
 CH3O            1.856-10
 CH4             4.628-10
 CH3OH           2.664-11
 CH3OOH          2.902-15
 *CO             2.4915-1
 *CO2            6.5290-2
 COOH            9.4375-6
 *C2             8.453-14
 C2H             1.405-12
 C2H2,acetylene  8.205-12
 C2H2,vinylidene 9.856-14
 CH2CO,ketene    5.165-11
 O(CH)2O         6.016-13
 HO(CO)2OH       6.499-14
 C2H3,vinyl      7.477-15
 CH3CO,acetyl    7.308-14
 C2H4            1.711-15
 CH3CHO,ethanal  1.343-15
 CH3COOH         5.491-16
 OHCH2COOH       1.150-16
 C2O             5.274-10
 C3O2            6.219-13
 *H              6.5992-2
 HCO             2.2713-5
 HCCO            5.039-11
 HO2             8.2545-5
 *H2             1.5443-1
 HCHO,formaldehy 5.4629-7
 HCOOH           1.1333-6
 H2O             3.4792-1
 H2O2            1.0834-5
 *O              1.8768-2
 *OH             8.2231-2
 *O2             1.6087-2
 O3              6.6050-8

  * THERMODYNAMIC PROPERTIES FITTED TO 20000.K


                     DETONATION PROPERTIES OF AN IDEAL REACTING GAS
 CASE =                

             REACTANT                       MOLES         ENERGY      TEMP
                                                         KJ/KG-MOL      K
 FUEL        CH4                          0.8500000    -74533.907    300.000
 OXIDANT     O2                           2.3000000        54.358    300.000
 FUEL        C2H6                         0.1000000    -83754.210    300.000
 FUEL        C3H8                         0.0500000   -104543.521    300.000

 O/F=    2.60322  %FUEL= 27.752987  R,EQ.RATIO= 1.500000  PHI,EQ.RATIO= 1.500000

 UNBURNED GAS

 P1, BAR           1.0000
 T1, K             300.00
 H1, KJ/KG       -1131.94
 M1, (1/n)         26.808
 GAMMA1            1.3324
 SON VEL1,M/SEC     352.1

 BURNED GAS

 P, BAR            33.675
 T, K             3700.02
 RHO, KG/CU M    1.9885 0
 H, KJ/KG         1210.57
 U, KJ/KG         -482.87
 G, KJ/KG        -50427.1
 S, KJ/(KG)(K)    13.9560

 M, (1/n)          18.167
 (dLV/dLP)t      -1.04946
 (dLV/dLT)p        1.8191
 Cp, KJ/(KG)(K)    8.7503
 GAMMAs            1.1410
 SON VEL,M/SEC     1390.1

 DETONATION PARAMETERS

 P/P1              33.675
 T/T1              12.333
 M/M1              0.6777
 RHO/RHO1          1.8503
 DET MACH NUMBER   7.3046
 DET VEL,M/SEC     2572.0

 MOLE FRACTIONS

 *C              5.4285-9
 *CH             2.3662-9
 CH2             3.3600-9
 CH3             3.8918-9
 CH2OH           6.941-10
 CH3O            2.425-10
 CH4             8.634-10
 CH3OH           4.041-11
 CH3OOH          3.358-15
 *CO             2.6307-1
 *CO2            5.7890-2
 COOH            8.6672-6
 *C2             1.166-13
 C2H             2.264-12
 C2H2,acetylene  1.580-11
 C2H2,vinylidene 1.811-13
 CH2CO,ketene    8.385-11
 O(CH)2O         7.937-13
 HO(CO)2OH       5.982-14
 C2H3,vinyl      1.542-14
 CH3CO,acetyl    1.274-13
 C2H4            4.105-15
 CH3CHO,ethanal  2.665-15
 CH3COOH         9.096-16
 OHCH2COOH       1.536-16
 C2O             6.568-10
 C3O2            8.873-13
 *H              6.6537-2
 HCO             2.5009-5
 HCCO            7.060-11
 HO2             5.3713-5
 *H2             1.8074-1
 HCHO,formaldehy 6.8209-7
 HCOOH           1.1818-6
 H2O             3.4030-1
 H2O2            7.9978-6
 *O              1.3447-2
 *OH             6.8265-2
 *O2             9.6462-3
 O3              2.9222-8

  * THERMODYNAMIC PROPERTIES FITTED TO 20000.K


                     DETONATION PROPERTIES OF AN IDEAL REACTING GAS
 CASE =                

             REACTANT                       MOLES         ENERGY      TEMP
                                                         KJ/KG-MOL      K
 FUEL        CH4                          0.8500000    -74533.907    300.000
 OXIDANT     O2                           2.3000000        54.358    300.000
 FUEL        C2H6                         0.1000000    -83754.210    300.000
 FUEL        C3H8                         0.0500000   -104543.521    300.000

 O/F=    2.44051  %FUEL= 29.065418  R,EQ.RATIO= 1.600000  PHI,EQ.RATIO= 1.600000

 UNBURNED GAS

 P1, BAR           1.0000
 T1, K             300.00
 H1, KJ/KG       -1185.55
 M1, (1/n)         26.604
 GAMMA1            1.3304
 SON VEL1,M/SEC     353.2

 BURNED GAS

 P, BAR            33.935
 T, K             3655.57
 RHO, KG/CU M    1.9706 0
 H, KJ/KG         1194.06
 U, KJ/KG         -527.95
 G, KJ/KG        -50689.4
 S, KJ/(KG)(K)    14.1930

 M, (1/n)          17.651
 (dLV/dLP)t      -1.04115
 (dLV/dLT)p        1.6867
 Cp, KJ/(KG)(K)    7.9903
 GAMMAs            1.1449
 SON VEL,M/SEC     1404.1

 DETONATION PARAMETERS

 P/P1              33.935
 T/T1              12.185
 M/M1              0.6635
 RHO/RHO1          1.8477
 DET MACH NUMBER   7.3458
 DET VEL,M/SEC     2594.4

 MOLE FRACTIONS

 *C              5.3720-9
 *CH             2.6535-9
 CH2             4.4312-9
 CH3             6.0987-9
 CH2OH           8.816-10
 CH3O            3.014-10
 CH4             1.5769-9
 CH3OH           5.943-11
 CH3OOH          3.634-15
 *CO             2.7546-1
 *CO2            5.1132-2
 COOH            7.7041-6
 *C2             1.465-13
 C2H             3.400-12
 C2H2,acetylene  2.924-11
 C2H2,vinylidene 3.137-13
 CH2CO,ketene    1.316-10
 O(CH)2O         1.003-12
 HO(CO)2OH       5.301-14
 C2H3,vinyl      3.010-14
 CH3CO,acetyl    2.118-13
 C2H4            9.516-15
 CH3CHO,ethanal  5.101-15
 CH3COOH         1.456-15
 OHCH2COOH       1.960-16
 C2O             7.722-10
 C3O2            1.215-12
 *H              6.5064-2
 HCO             2.6607-5
 HCCO            9.395-11
 HO2             3.2957-5
 *H2             2.0907-1
 HCHO,formaldehy 8.3049-7
 HCOOH           1.2043-6
 H2O             3.2980-1
 H2O2            5.6190-6
 *O              9.1404-3
 *OH             5.4753-2
 *O2             5.5044-3
 O3              1.1713-8

  * THERMODYNAMIC PROPERTIES FITTED TO 20000.K


                     DETONATION PROPERTIES OF AN IDEAL REACTING GAS
 CASE =                

             REACTANT                       MOLES         ENERGY      TEMP
                                                         KJ/KG-MOL      K
 FUEL        CH4                          0.8500000    -74533.907    300.000
 OXIDANT     O2                           2.3000000        54.358    300.000
 FUEL        C2H6                         0.1000000    -83754.210    300.000
 FUEL        C3H8                         0.0500000   -104543.521    300.000

 O/F=    2.29696  %FUEL= 30.331017  R,EQ.RATIO= 1.700000  PHI,EQ.RATIO= 1.700000

 UNBURNED GAS

 P1, BAR           1.0000
 T1, K             300.00
 H1, KJ/KG       -1237.25
 M1, (1/n)         26.410
 GAMMA1            1.3285
 SON VEL1,M/SEC     354.2

 BURNED GAS

 P, BAR            34.046
 T, K             3599.32
 RHO, KG/CU M    1.9526 0
 H, KJ/KG         1169.51
 U, KJ/KG         -574.10
 G, KJ/KG        -50713.6
 S, KJ/(KG)(K)    14.4147

 M, (1/n)          17.164
 (dLV/dLP)t      -1.03335
 (dLV/dLT)p        1.5620
 Cp, KJ/(KG)(K)    7.2246
 GAMMAs            1.1498
 SON VEL,M/SEC     1415.9

 DETONATION PARAMETERS

 P/P1              34.046
 T/T1              11.998
 M/M1              0.6499
 RHO/RHO1          1.8442
 DET MACH NUMBER   7.3717
 DET VEL,M/SEC     2611.2

 MOLE FRACTIONS

 *C              4.9099-9
 *CH             2.7660-9
 CH2             5.5278-9
 CH3             9.2299-9
 CH2OH           1.0733-9
 CH3O            3.569-10
 CH4             2.8246-9
 CH3OH           8.487-11
 CH3OOH          3.683-15
 *CO             2.8637-1
 *CO2            4.5043-2
 COOH            6.6326-6
 *C2             1.682-13
 C2H             4.769-12
 C2H2,acetylene  5.217-11
 C2H2,vinylidene 5.135-13
 CH2CO,ketene    2.004-10
 O(CH)2O         1.219-12
 HO(CO)2OH       4.533-14
 C2H3,vinyl      5.581-14
 CH3CO,acetyl    3.368-13
 C2H4            2.138-14
 CH3CHO,ethanal  9.444-15
 CH3COOH         2.258-15
 OHCH2COOH       2.394-16
 C2O             8.592-10
 C3O2            1.604-12
 *H              6.1675-2
 HCO             2.7374-5
 HCCO            1.190-10
 HO2             1.9040-5
 *H2             2.3900-1
 HCHO,formaldehy 9.8716-7
 HCOOH           1.2007-6
 H2O             3.1659-1
 H2O2            3.7527-6
 *O              5.8880-3
 *OH             4.2394-2
 *O2             2.9852-3
 O3              4.2457-9

  * THERMODYNAMIC PROPERTIES FITTED TO 20000.K


                     DETONATION PROPERTIES OF AN IDEAL REACTING GAS
 CASE =                

             REACTANT                       MOLES         ENERGY      TEMP
                                                         KJ/KG-MOL      K
 FUEL        CH4                          0.8500000    -74533.907    300.000
 OXIDANT     O2                           2.3000000        54.358    300.000
 FUEL        C2H6                         0.1000000    -83754.210    300.000
 FUEL        C3H8                         0.0500000   -104543.521    300.000

 O/F=    2.16935  %FUEL= 31.552247  R,EQ.RATIO= 1.800000  PHI,EQ.RATIO= 1.800000

 UNBURNED GAS

 P1, BAR           1.0000
 T1, K             300.00
 H1, KJ/KG       -1287.13
 M1, (1/n)         26.225
 GAMMA1            1.3266
 SON VEL1,M/SEC     355.2

 BURNED GAS

 P, BAR            34.009
 T, K             3532.01
 RHO, KG/CU M    1.9345 0
 H, KJ/KG         1135.88
 U, KJ/KG         -622.21
 G, KJ/KG        -50507.6
 S, KJ/(KG)(K)    14.6216

 M, (1/n)          16.704
 (dLV/dLP)t      -1.02652
 (dLV/dLT)p        1.4521
 Cp, KJ/(KG)(K)    6.5126
 GAMMAs            1.1556
 SON VEL,M/SEC     1425.3

 DETONATION PARAMETERS

 P/P1              34.009
 T/T1              11.773
 M/M1              0.6369
 RHO/RHO1          1.8399
 DET MACH NUMBER   7.3828
 DET VEL,M/SEC     2622.5

 MOLE FRACTIONS

 *C              4.1381-9
 *CH             2.6772-9
 CH2             6.5206-9
 CH3             1.3499-8
 CH2OH           1.2529-9
 CH3O            4.028-10
 CH4             4.9709-9
 CH3OH           1.178-10
 CH3OOH          3.495-15
 *CO             2.9589-1
 *CO2            3.9634-2
 COOH            5.5350-6
 *C2             1.763-13
 C2H             6.249-12
 C2H2,acetylene  8.989-11
 C2H2,vinylidene 7.949-13
 CH2CO,ketene    2.966-10
 O(CH)2O         1.425-12
 HO(CO)2OH       3.750-14
 C2H3,vinyl      9.839-14
 CH3CO,acetyl    5.135-13
 C2H4            4.665-14
 CH3CHO,ethanal  1.696-14
 CH3COOH         3.404-15
 OHCH2COOH       2.806-16
 C2O             9.054-10
 C3O2            2.046-12
 *H              5.6614-2
 HCO             2.7247-5
 HCCO            1.437-10
 HO2             1.0342-5
 *H2             2.6996-1
 HCHO,formaldehy 1.1467-6
 HCOOH           1.1728-6
 H2O             3.0107-1
 H2O2            2.3804-6
 *O              3.5881-3
 *OH             3.1658-2
 *O2             1.5365-3
 O3              1.3888-9

  * THERMODYNAMIC PROPERTIES FITTED TO 20000.K


                     DETONATION PROPERTIES OF AN IDEAL REACTING GAS
 CASE =                

             REACTANT                       MOLES         ENERGY      TEMP
                                                         KJ/KG-MOL      K
 FUEL        CH4                          0.8500000    -74533.907    300.000
 OXIDANT     O2                           2.3000000        54.358    300.000
 FUEL        C2H6                         0.1000000    -83754.210    300.000
 FUEL        C3H8                         0.0500000   -104543.521    300.000

 O/F=    2.05517  %FUEL= 32.731400  R,EQ.RATIO= 1.900000  PHI,EQ.RATIO= 1.900000

 UNBURNED GAS

 P1, BAR           1.0000
 T1, K             300.00
 H1, KJ/KG       -1335.30
 M1, (1/n)         26.050
 GAMMA1            1.3249
 SON VEL1,M/SEC     356.2

 BURNED GAS

 P, BAR            33.833
 T, K             3454.74
 RHO, KG/CU M    1.9164 0
 H, KJ/KG         1093.35
 U, KJ/KG         -672.15
 G, KJ/KG        -50086.0
 S, KJ/(KG)(K)    14.8143

 M, (1/n)          16.270
 (dLV/dLP)t      -1.02079
 (dLV/dLT)p        1.3591
 Cp, KJ/(KG)(K)    5.8840
 GAMMAs            1.1623
 SON VEL,M/SEC     1432.5

 DETONATION PARAMETERS

 P/P1              33.833
 T/T1              11.516
 M/M1              0.6246
 RHO/RHO1          1.8350
 DET MACH NUMBER   7.3799
 DET VEL,M/SEC     2628.6

 MOLE FRACTIONS

 *C              3.2147-9
 *CH             2.4059-9
 CH2             7.2760-9
 CH3             1.9098-8
 CH2OH           1.4040-9
 CH3O            4.336-10
 CH4             8.6126-9
 CH3OH           1.594-10
 CH3OOH          3.110-15
 *CO             3.0414-1
 *CO2            3.4883-2
 COOH            4.4823-6
 *C2             1.687-13
 C2H             7.659-12
 C2H2,acetylene  1.499-10
 C2H2,vinylidene 1.165-12
 CH2CO,ketene    4.276-10
 O(CH)2O         1.608-12
 HO(CO)2OH       3.012-14
 C2H3,vinyl      1.653-13
 CH3CO,acetyl    7.521-13
 C2H4            9.919-14
 CH3CHO,ethanal  2.962-14
 CH3COOH         5.004-15
 OHCH2COOH       3.168-16
 C2H5            1.975-16
 C2O             9.050-10
 C3O2            2.532-12
 *H              5.0300-2
 HCO             2.6257-5
 HCCO            1.656-10
 HO2             5.2796-6
 *H2             3.0129-1
 HCHO,formaldehy 1.3034-6
 HCOOH           1.1240-6
 H2O             2.8374-1
 H2O2            1.4339-6
 *O              2.0667-3
 *OH             2.2791-2
 *O2             7.5018-4
 O3              4.098-10

  * THERMODYNAMIC PROPERTIES FITTED TO 20000.K


                     DETONATION PROPERTIES OF AN IDEAL REACTING GAS
 CASE =                

             REACTANT                       MOLES         ENERGY      TEMP
                                                         KJ/KG-MOL      K
 FUEL        CH4                          0.8500000    -74533.907    300.000
 OXIDANT     O2                           2.3000000        54.358    300.000
 FUEL        C2H6                         0.1000000    -83754.210    300.000
 FUEL        C3H8                         0.0500000   -104543.521    300.000

 O/F=    1.95241  %FUEL= 33.870614  R,EQ.RATIO= 2.000000  PHI,EQ.RATIO= 2.000000

 UNBURNED GAS

 P1, BAR           1.0000
 T1, K             300.00
 H1, KJ/KG       -1381.83
 M1, (1/n)         25.882
 GAMMA1            1.3233
 SON VEL1,M/SEC     357.1

 BURNED GAS

 P, BAR            33.522
 T, K             3368.67
 RHO, KG/CU M    1.8981 0
 H, KJ/KG         1041.99
 U, KJ/KG         -724.06
 G, KJ/KG        -49465.6
 S, KJ/(KG)(K)    14.9933

 M, (1/n)          15.860
 (dLV/dLP)t      -1.01609
 (dLV/dLT)p        1.2822
 Cp, KJ/(KG)(K)    5.3436
 GAMMAs            1.1699
 SON VEL,M/SEC     1437.4

 DETONATION PARAMETERS

 P/P1              33.522
 T/T1              11.229
 M/M1              0.6128
 RHO/RHO1          1.8293
 DET MACH NUMBER   7.3628
 DET VEL,M/SEC     2629.4

 MOLE FRACTIONS

 *C              2.2994-9
 *CH             2.0065-9
 CH2             7.6821-9
 CH3             2.6172-8
 CH2OH           1.5121-9
 CH3O            4.458-10
 CH4             1.4729-8
 CH3OH           2.104-10
 CH3OOH          2.600-15
 *CO             3.1123-1
 *CO2            3.0744-2
 COOH            3.5251-6
 *C2             1.473-13
 C2H             8.788-12
 C2H2,acetylene  2.424-10
 C2H2,vinylidene 1.621-12
 CH2CO,ketene    6.020-10
 O(CH)2O         1.755-12
 HO(CO)2OH       2.356-14
 C2H3,vinyl      2.651-13
 CH3CO,acetyl    1.061-12
 C2H4            2.061-13
 CH3CHO,ethanal  5.048-14
 CH3COOH         7.198-15
 OHCH2COOH       3.457-16
 C2H5            4.048-16
 C2O             8.586-10
 C3O2            3.047-12
 *H              4.3231-2
 HCO             2.4511-5
 HCCO            1.825-10
 HO2             2.5301-6
 *H2             3.3235-1
 HCHO,formaldehy 1.4513-6
 HCOOH           1.0586-6
 H2O             2.6513-1
 H2O2            8.1997-7
 *O              1.1235-3
 *OH             1.5808-2
 *O2             3.4696-4
 O3              1.089-10

  * THERMODYNAMIC PROPERTIES FITTED TO 20000.K



