
 *******************************************************************************

         NASA-GLENN CHEMICAL EQUILIBRIUM PROGRAM CEA2, MAY 21, 2004
                   BY  BONNIE MCBRIDE AND SANFORD GORDON
      REFS: NASA RP-1311, PART I, 1994 AND NASA RP-1311, PART II, 1996

 *******************************************************************************



 problem    phi,eq.ratio=0.50,0.6,0.7,0.8,0.9,1,1.1,1.2,1.3,1.4,1.5,1.6,1.7,1.8,1
 .9,2,
       det   t,k=300,  p,bar=1,
 react
   fuel=CH4 moles=0.85 t,k=300
   oxid=O2 moles=2.3 t,k=300
   oxid=N2 moles=8.6524 t,k=300
   fuel=C2H6 moles=0.1 t,k=300
   fuel=C3H8 moles=0.05 t,k=300
 output
      trace=1e-16 siunits short
 end


                     DETONATION PROPERTIES OF AN IDEAL REACTING GAS
 CASE =                

             REACTANT                       MOLES         ENERGY      TEMP
                                                         KJ/KG-MOL      K
 FUEL        CH4                          0.8500000    -74533.907    300.000
 OXIDANT     O2                           2.3000000        54.358    300.000
 OXIDANT     N2                           8.6524000        53.881    300.000
 FUEL        C2H6                         0.1000000    -83754.210    300.000
 FUEL        C3H8                         0.0500000   -104543.521    300.000

 O/F=   33.52973  %FUEL=  2.896055  R,EQ.RATIO= 0.500000  PHI,EQ.RATIO= 0.500000

 UNBURNED GAS

 P1, BAR           1.0000
 T1, K             300.00
 H1, KJ/KG        -116.43
 M1, (1/n)         28.414
 GAMMA1            1.3902
 SON VEL1,M/SEC     349.3

 BURNED GAS

 P, BAR            11.689
 T, K             2017.77
 RHO, KG/CU M    1.9703 0
 H, KJ/KG          623.97
 U, KJ/KG          30.734
 G, KJ/KG        -16858.3
 S, KJ/(KG)(K)     8.6642

 M, (1/n)          28.280
 (dLV/dLP)t      -1.00012
 (dLV/dLT)p        1.0040
 Cp, KJ/(KG)(K)    1.4658
 GAMMAs            1.2532
 SON VEL,M/SEC      862.2

 DETONATION PARAMETERS

 P/P1              11.689
 T/T1               6.726
 M/M1              0.9953
 RHO/RHO1          1.7297
 DET MACH NUMBER   4.2692
 DET VEL,M/SEC     1491.4

 MOLE FRACTIONS

 *CO             7.4774-5
 *CO2            5.2070-2
 COOH            4.688-10
 *H              2.9118-6
 HCN             2.465-15
 HCO             8.612-13
 HNC             1.285-16
 HNCO            2.286-12
 HNO             3.4528-8
 HNO2            5.7468-7
 HNO3            3.748-10
 HO2             3.1883-6
 *H2             2.9372-5
 HCHO,formaldehy 1.060-14
 HCOOH           3.284-11
 H2O             9.5018-2
 H2O2            2.0084-7
 *N              2.943-10
 NCO             1.058-13
 *NH             2.973-11
 NH2             1.117-11
 NH3             3.167-11
 NH2OH           5.050-14
 *NO             5.3283-3
 NO2             2.0914-5
 NO3             7.168-11
 *N2             7.4929-1
 N2H2            8.518-16
 N2O             1.0008-6
 N2O3            2.564-12
 N2O4            4.095-16
 N3              5.404-15
 N3H             8.220-16
 *O              6.9739-5
 *OH             1.0964-3
 *O2             9.6999-2
 O3              6.6095-9

  * THERMODYNAMIC PROPERTIES FITTED TO 20000.K


                     DETONATION PROPERTIES OF AN IDEAL REACTING GAS
 CASE =                

             REACTANT                       MOLES         ENERGY      TEMP
                                                         KJ/KG-MOL      K
 FUEL        CH4                          0.8500000    -74533.907    300.000
 OXIDANT     O2                           2.3000000        54.358    300.000
 OXIDANT     N2                           8.6524000        53.881    300.000
 FUEL        C2H6                         0.1000000    -83754.210    300.000
 FUEL        C3H8                         0.0500000   -104543.521    300.000

 O/F=   27.94144  %FUEL=  3.455253  R,EQ.RATIO= 0.600000  PHI,EQ.RATIO= 0.600000

 UNBURNED GAS

 P1, BAR           1.0000
 T1, K             300.00
 H1, KJ/KG        -139.27
 M1, (1/n)         28.331
 GAMMA1            1.3886
 SON VEL1,M/SEC     349.7

 BURNED GAS

 P, BAR            13.174
 T, K             2245.70
 RHO, KG/CU M    1.9862 0
 H, KJ/KG          703.12
 U, KJ/KG          39.836
 G, KJ/KG        -19160.8
 S, KJ/(KG)(K)     8.8453

 M, (1/n)          28.151
 (dLV/dLP)t      -1.00043
 (dLV/dLT)p        1.0131
 Cp, KJ/(KG)(K)    1.5937
 GAMMAs            1.2342
 SON VEL,M/SEC      904.8

 DETONATION PARAMETERS

 P/P1              13.174
 T/T1               7.486
 M/M1              0.9936
 RHO/RHO1          1.7487
 DET MACH NUMBER   4.5251
 DET VEL,M/SEC     1582.2

 MOLE FRACTIONS

 *CN             1.269-15
 *CO             5.0695-4
 *CO2            6.1422-2
 COOH            4.1507-9
 *H              2.6123-5
 HCN             2.180-13
 HCO             3.731-11
 HNC             1.655-14
 HNCO            4.091-11
 HNO             1.4305-7
 HNO2            7.5857-7
 HNO3            3.416-10
 HO2             6.5761-6
 *H2             1.7019-4
 HCHO,formaldehy 4.642-13
 HCOOH           2.843-10
 H2O             1.1192-1
 H2O2            4.2993-7
 *N              5.0371-9
 NCO             3.472-12
 *NH             6.173-10
 NH2             2.083-10
 NH3             3.544-10
 NH2OH           5.498-13
 *NO             8.0736-3
 NO2             2.1100-5
 NO3             8.866-11
 *N2             7.4016-1
 N2H2            2.019-14
 N2O             1.5836-6
 N2O3            3.780-12
 N2O4            3.766-16
 N3              8.236-14
 N3H             1.336-14
 *O              2.7023-4
 *OH             2.8567-3
 *O2             7.4562-2
 O3              1.1699-8

  * THERMODYNAMIC PROPERTIES FITTED TO 20000.K


                     DETONATION PROPERTIES OF AN IDEAL REACTING GAS
 CASE =                

             REACTANT                       MOLES         ENERGY      TEMP
                                                         KJ/KG-MOL      K
 FUEL        CH4                          0.8500000    -74533.907    300.000
 OXIDANT     O2                           2.3000000        54.358    300.000
 OXIDANT     N2                           8.6524000        53.881    300.000
 FUEL        C2H6                         0.1000000    -83754.210    300.000
 FUEL        C3H8                         0.0500000   -104543.521    300.000

 O/F=   23.94980  %FUEL=  4.008047  R,EQ.RATIO= 0.700000  PHI,EQ.RATIO= 0.700000

 UNBURNED GAS

 P1, BAR           1.0000
 T1, K             300.00
 H1, KJ/KG        -161.85
 M1, (1/n)         28.249
 GAMMA1            1.3871
 SON VEL1,M/SEC     350.0

 BURNED GAS

 P, BAR            14.516
 T, K             2441.56
 RHO, KG/CU M    2.0017 0
 H, KJ/KG          772.50
 U, KJ/KG          47.288
 G, KJ/KG        -21223.9
 S, KJ/(KG)(K)     9.0092

 M, (1/n)          27.992
 (dLV/dLP)t      -1.00125
 (dLV/dLT)p        1.0343
 Cp, KJ/(KG)(K)    1.7946
 GAMMAs            1.2133
 SON VEL,M/SEC      938.0

 DETONATION PARAMETERS

 P/P1              14.516
 T/T1               8.139
 M/M1              0.9909
 RHO/RHO1          1.7674
 DET MACH NUMBER   4.7372
 DET VEL,M/SEC     1657.9

 MOLE FRACTIONS

 *CN             6.661-14
 *CO             2.1102-3
 *CO2            6.9322-2
 COOH            2.0563-8
 *H              1.2894-4
 HCN             6.371-12
 HCO             6.087-10
 HNC             6.312-13
 HNCO            3.591-10
 HNO             3.8466-7
 HNO2            8.4252-7
 HNO3            2.732-10
 HO2             9.9558-6
 *H2             6.4395-4
 HCHO,formaldehy 8.030-12
 HCOOH           1.4620-9
 H2O             1.2752-1
 H2O2            7.0129-7
 *N              3.7636-8
 NCO             4.470-11
 *NH             5.5380-9
 NH2             1.8173-9
 NH3             2.2605-9
 NH2OH           3.237-12
 *NO             1.0047-2
 NO2             1.8423-5
 NO3             8.386-11
 *N2             7.3075-1
 N2H2            2.123-13
 NH2NO2          2.649-16
 N2O             2.0527-6
 N2O3            4.073-12
 N2O4            2.727-16
 N3              5.729-13
 N3H             1.022-13
 *O              6.5368-4
 *OH             5.4524-3
 *O2             5.3344-2
 O3              1.4349-8

  * THERMODYNAMIC PROPERTIES FITTED TO 20000.K


                     DETONATION PROPERTIES OF AN IDEAL REACTING GAS
 CASE =                

             REACTANT                       MOLES         ENERGY      TEMP
                                                         KJ/KG-MOL      K
 FUEL        CH4                          0.8500000    -74533.907    300.000
 OXIDANT     O2                           2.3000000        54.358    300.000
 OXIDANT     N2                           8.6524000        53.881    300.000
 FUEL        C2H6                         0.1000000    -83754.210    300.000
 FUEL        C3H8                         0.0500000   -104543.521    300.000

 O/F=   20.95608  %FUEL=  4.554547  R,EQ.RATIO= 0.800000  PHI,EQ.RATIO= 0.800000

 UNBURNED GAS

 P1, BAR           1.0000
 T1, K             300.00
 H1, KJ/KG        -184.18
 M1, (1/n)         28.169
 GAMMA1            1.3857
 SON VEL1,M/SEC     350.3

 BURNED GAS

 P, BAR            15.683
 T, K             2599.61
 RHO, KG/CU M    2.0162 0
 H, KJ/KG          830.05
 U, KJ/KG          52.175
 G, KJ/KG        -22980.4
 S, KJ/(KG)(K)     9.1592

 M, (1/n)          27.787
 (dLV/dLP)t      -1.00284
 (dLV/dLT)p        1.0726
 Cp, KJ/(KG)(K)    2.0984
 GAMMAs            1.1922
 SON VEL,M/SEC      963.0

 DETONATION PARAMETERS

 P/P1              15.683
 T/T1               8.665
 M/M1              0.9864
 RHO/RHO1          1.7853
 DET MACH NUMBER   4.9082
 DET VEL,M/SEC     1719.3

 MOLE FRACTIONS

 *C              9.384-16
 *CH             1.521-16
 CH2             2.808-16
 CH3             6.395-16
 CH2OH           1.470-15
 CH3O            2.597-16
 CH4             1.630-16
 *CN             1.253-12
 *CO             6.1540-3
 *CO2            7.4421-2
 COOH            6.5619-8
 *H              4.1254-4
 HCN             8.453-11
 HCO             4.8794-9
 HNC             1.008-11
 HNCO            1.8776-9
 HNO             7.3948-7
 HNO2            7.9499-7
 HNO3            1.873-10
 HO2             1.1610-5
 *H2             1.8112-3
 HCHO,formaldehy 7.121-11
 HCOOH           5.0893-9
 H2O             1.4161-1
 H2O2            9.1321-7
 *N              1.5205-7
 NCO             2.880-10
 *NH             2.6911-8
 NH2             9.1859-9
 NH3             9.7408-9
 NH2OH           1.208-11
 *NO             1.0591-2
 NO2             1.3854-5
 NO3             6.091-11
 *N2             7.2092-1
 N2H2            1.234-12
 NH2NO2          5.437-16
 N2O             2.2401-6
 N2O3            3.251-12
 N2O4            1.509-16
 N3              2.217-12
 N3H             4.478-13
 *O              1.0936-3
 *OH             8.1833-3
 *O2             3.4782-2
 O3              1.2560-8

  * THERMODYNAMIC PROPERTIES FITTED TO 20000.K


                     DETONATION PROPERTIES OF AN IDEAL REACTING GAS
 CASE =                

             REACTANT                       MOLES         ENERGY      TEMP
                                                         KJ/KG-MOL      K
 FUEL        CH4                          0.8500000    -74533.907    300.000
 OXIDANT     O2                           2.3000000        54.358    300.000
 OXIDANT     N2                           8.6524000        53.881    300.000
 FUEL        C2H6                         0.1000000    -83754.210    300.000
 FUEL        C3H8                         0.0500000   -104543.521    300.000

 O/F=   18.62763  %FUEL=  5.094860  R,EQ.RATIO= 0.900000  PHI,EQ.RATIO= 0.900000

 UNBURNED GAS

 P1, BAR           1.0000
 T1, K             300.00
 H1, KJ/KG        -206.25
 M1, (1/n)         28.091
 GAMMA1            1.3842
 SON VEL1,M/SEC     350.6

 BURNED GAS

 P, BAR            16.623
 T, K             2715.16
 RHO, KG/CU M    2.0266 0
 H, KJ/KG          872.84
 U, KJ/KG          52.587
 G, KJ/KG        -24372.2
 S, KJ/(KG)(K)     9.2978

 M, (1/n)          27.522
 (dLV/dLP)t      -1.00502
 (dLV/dLT)p        1.1227
 Cp, KJ/(KG)(K)    2.4676
 GAMMAs            1.1755
 SON VEL,M/SEC      981.9

 DETONATION PARAMETERS

 P/P1              16.623
 T/T1               9.051
 M/M1              0.9798
 RHO/RHO1          1.7995
 DET MACH NUMBER   5.0401
 DET VEL,M/SEC     1767.0

 MOLE FRACTIONS

 *C              1.386-14
 *CH             2.736-15
 CH2             5.165-15
 CH3             1.128-14
 CH2OH           1.466-14
 CH3O            2.836-15
 CH4             2.938-15
 CH3OH           7.619-16
 *CN             1.081-11
 *CO             1.3688-2
 *CO2            7.5588-2
 COOH            1.4710-7
 CH2CO,ketene    1.287-16
 HO(CO)2OH       2.233-16
 OCCN            3.924-16
 C2O             1.548-15
 *H              9.4933-4
 HCN             6.258-10
 HCO             2.2762-8
 HNC             8.419-11
 HNCO            6.6278-9
 HNO             1.0739-6
 HNO2            6.3500-7
 HNO3            1.067-10
 HO2             1.0642-5
 *H2             4.1266-3
 HCHO,formaldehy 3.833-10
 HCOOH           1.3046-8
 H2O             1.5404-1
 H2O2            9.7078-7
 *N              3.7849-7
 NCO             1.0815-9
 *NH             8.1529-8
 NH2             3.0815-8
 NH3             3.1745-8
 NH2OH           3.158-11
 *NO             9.5798-3
 NO2             8.8338-6
 NO3             3.341-11
 *N2             7.1044-1
 NCN             8.519-16
 N2H2            4.558-12
 NH2NO2          7.834-16
 N2O             2.0783-6
 N2O3            1.900-12
 N3              5.378-12
 N3H             1.272-12
 *O              1.3397-3
 *OH             1.0059-2
 *O2             2.0164-2
 O3              7.8238-9

  * THERMODYNAMIC PROPERTIES FITTED TO 20000.K


                     DETONATION PROPERTIES OF AN IDEAL REACTING GAS
 CASE =                

             REACTANT                       MOLES         ENERGY      TEMP
                                                         KJ/KG-MOL      K
 FUEL        CH4                          0.8500000    -74533.907    300.000
 OXIDANT     O2                           2.3000000        54.358    300.000
 OXIDANT     N2                           8.6524000        53.881    300.000
 FUEL        C2H6                         0.1000000    -83754.210    300.000
 FUEL        C3H8                         0.0500000   -104543.521    300.000

 O/F=   16.76486  %FUEL=  5.629089  R,EQ.RATIO= 1.000000  PHI,EQ.RATIO= 1.000000

 UNBURNED GAS

 P1, BAR           1.0000
 T1, K             300.00
 H1, KJ/KG        -228.07
 M1, (1/n)         28.013
 GAMMA1            1.3828
 SON VEL1,M/SEC     350.9

 BURNED GAS

 P, BAR            17.286
 T, K             2786.30
 RHO, KG/CU M    2.0294 0
 H, KJ/KG          898.26
 U, KJ/KG          46.461
 G, KJ/KG        -25366.8
 S, KJ/(KG)(K)     9.4265

 M, (1/n)          27.197
 (dLV/dLP)t      -1.00662
 (dLV/dLT)p        1.1584
 Cp, KJ/(KG)(K)    2.7334
 GAMMAs            1.1675
 SON VEL,M/SEC      997.2

 DETONATION PARAMETERS

 P/P1              17.286
 T/T1               9.288
 M/M1              0.9709
 RHO/RHO1          1.8070
 DET MACH NUMBER   5.1353
 DET VEL,M/SEC     1802.0

 MOLE FRACTIONS

 *C              9.058-14
 *CH             2.228-14
 CH2             4.737-14
 CH3             1.123-13
 CH2OH           8.699-14
 CH3O            1.775-14
 CH4             3.303-14
 CH3OH           5.267-15
 *CN             5.180-11
 *CO             2.4915-2
 *CO2            7.2558-2
 COOH            2.4755-7
 CH2CO,ketene    1.565-15
 HO(CO)2OH       4.781-16
 OCCN            3.166-15
 C2O             1.354-14
 *H              1.6955-3
 HCN             3.0565-9
 HCO             7.0546-8
 HCCO            7.799-16
 HNC             4.408-10
 HNCO            1.7492-8
 HNO             1.2174-6
 HNO2            4.2190-7
 HNO3            4.830-11
 HO2             7.6587-6
 *H2             8.1509-3
 HCHO,formaldehy 1.4354-9
 HCOOH           2.6396-8
 H2O             1.6452-1
 H2O2            8.4630-7
 *N              6.3502-7
 NCO             2.6582-9
 *NH             1.7033-7
 NH2             7.5955-8
 NH3             8.5637-8
 NH2OH           6.210-11
 *NO             7.4272-3
 NO2             4.6343-6
 NO3             1.330-11
 *N2             6.9910-1
 NCN             4.498-15
 N2H2            1.188-11
 NH2NO2          8.128-16
 N2H4            1.806-16
 N2O             1.6345-6
 N2O3            7.838-13
 N3              8.875-12
 N3H             2.557-12
 *O              1.2379-3
 *OH             1.0358-2
 *O2             1.0023-2
 O3              3.3607-9

  * THERMODYNAMIC PROPERTIES FITTED TO 20000.K


                     DETONATION PROPERTIES OF AN IDEAL REACTING GAS
 CASE =                

             REACTANT                       MOLES         ENERGY      TEMP
                                                         KJ/KG-MOL      K
 FUEL        CH4                          0.8500000    -74533.907    300.000
 OXIDANT     O2                           2.3000000        54.358    300.000
 OXIDANT     N2                           8.6524000        53.881    300.000
 FUEL        C2H6                         0.1000000    -83754.210    300.000
 FUEL        C3H8                         0.0500000   -104543.521    300.000

 O/F=   15.24078  %FUEL=  6.157338  R,EQ.RATIO= 1.100000  PHI,EQ.RATIO= 1.100000

 UNBURNED GAS

 P1, BAR           1.0000
 T1, K             300.00
 H1, KJ/KG        -249.65
 M1, (1/n)         27.937
 GAMMA1            1.3815
 SON VEL1,M/SEC     351.2

 BURNED GAS

 P, BAR            17.630
 T, K             2811.99
 RHO, KG/CU M    2.0220 0
 H, KJ/KG          903.97
 U, KJ/KG          32.054
 G, KJ/KG        -25939.9
 S, KJ/(KG)(K)     9.5462

 M, (1/n)          26.815
 (dLV/dLP)t      -1.00623
 (dLV/dLT)p        1.1482
 Cp, KJ/(KG)(K)    2.6807
 GAMMAs            1.1713
 SON VEL,M/SEC     1010.6

 DETONATION PARAMETERS

 P/P1              17.630
 T/T1               9.373
 M/M1              0.9598
 RHO/RHO1          1.8053
 DET MACH NUMBER   5.1948
 DET VEL,M/SEC     1824.4

 MOLE FRACTIONS

 *C              3.075-13
 *CH             9.752-14
 CH2             2.579-13
 CH3             7.514-13
 CH2OH           3.512-13
 CH3O            7.301-14
 CH4             2.752-13
 CH3OH           2.677-14
 *CN             1.574-10
 CNN             1.099-16
 *CO             3.9159-2
 *CO2            6.5962-2
 COOH            3.2674-7
 C2H2,acetylene  2.666-16
 CH2CO,ketene    1.207-14
 O(CH)2O         2.579-16
 HO(CO)2OH       7.602-16
 OCCN            1.480-14
 C2N2            1.468-16
 C2O             6.530-14
 *H              2.4628-3
 HCN             1.1157-8
 HCO             1.5935-7
 HCCO            4.860-15
 HNC             1.6486-9
 HNCO            3.7243-8
 HNO             1.0876-6
 HNO2            2.2616-7
 HNO3            1.637-11
 HO2             4.2346-6
 *H2             1.4637-2
 HCHO,formaldehy 4.1344-9
 HCOOH           4.4350-8
 H2O             1.7236-1
 H2O2            5.9720-7
 *N              7.5363-7
 NCO             4.6250-9
 *NH             2.6048-7
 NH2             1.4689-7
 NH3             2.0401-7
 NH2OH           9.580-11
 *NO             4.8681-3
 NO2             1.9165-6
 NO3             3.611-12
 *N2             6.8662-1
 NCN             1.409-14
 N2H2            2.335-11
 NH2NO2          6.057-16
 N2H4            6.187-16
 N2O             1.0735-6
 N2O3            2.148-13
 N3              1.041-11
 N3H             3.835-12
 *O              8.6536-4
 *OH             8.9757-3
 *O2             4.0804-3
 O3              9.405-10

  * THERMODYNAMIC PROPERTIES FITTED TO 20000.K


                     DETONATION PROPERTIES OF AN IDEAL REACTING GAS
 CASE =                

             REACTANT                       MOLES         ENERGY      TEMP
                                                         KJ/KG-MOL      K
 FUEL        CH4                          0.8500000    -74533.907    300.000
 OXIDANT     O2                           2.3000000        54.358    300.000
 OXIDANT     N2                           8.6524000        53.881    300.000
 FUEL        C2H6                         0.1000000    -83754.210    300.000
 FUEL        C3H8                         0.0500000   -104543.521    300.000

 O/F=   13.97072  %FUEL=  6.679706  R,EQ.RATIO= 1.200000  PHI,EQ.RATIO= 1.200000

 UNBURNED GAS

 P1, BAR           1.0000
 T1, K             300.00
 H1, KJ/KG        -270.99
 M1, (1/n)         27.863
 GAMMA1            1.3802
 SON VEL1,M/SEC     351.5

 BURNED GAS

 P, BAR            17.655
 T, K             2793.70
 RHO, KG/CU M    2.0052 0
 H, KJ/KG          889.78
 U, KJ/KG          9.3473
 G, KJ/KG        -26090.1
 S, KJ/(KG)(K)     9.6574

 M, (1/n)          26.383
 (dLV/dLP)t      -1.00432
 (dLV/dLT)p        1.1033
 Cp, KJ/(KG)(K)    2.3765
 GAMMAs            1.1864
 SON VEL,M/SEC     1022.0

 DETONATION PARAMETERS

 P/P1              17.655
 T/T1               9.312
 M/M1              0.9469
 RHO/RHO1          1.7951
 DET MACH NUMBER   5.2195
 DET VEL,M/SEC     1834.7

 MOLE FRACTIONS

 *C              5.952-13
 *CH             2.523-13
 CH2             9.149-13
 CH3             3.686-12
 CH2OH           1.035-12
 CH3O            2.122-13
 CH4             1.849-12
 CH3OH           1.072-13
 *CN             3.267-10
 CNN             2.132-16
 *CO             5.4937-2
 *CO2            5.7264-2
 COOH            3.4848-7
 C2H2,acetylene  2.339-15
 CH2CO,ketene    6.567-14
 O(CH)2O         8.394-16
 HO(CO)2OH       9.369-16
 OCCN            4.443-14
 C2N2            7.381-16
 C2O             1.935-13
 C3O2            4.134-16
 *H              2.9785-3
 HCN             3.2546-8
 HCO             2.7663-7
 HCCO            1.922-14
 HNC             4.7272-9
 HNCO            6.6832-8
 HNO             7.7233-7
 HNO2            9.6830-8
 HNO3            4.072-12
 HO2             1.7894-6
 *H2             2.4376-2
 HCHO,formaldehy 9.6685-9
 HCOOH           6.3797-8
 H2O             1.7655-1
 H2O2            3.3974-7
 *N              6.5137-7
 NCO             5.9834-9
 *NH             3.0104-7
 NH2             2.3004-7
 NH3             4.4110-7
 NH2OH           1.183-10
 *NO             2.6906-3
 NO2             6.1625-7
 NO3             6.566-13
 *N2             6.7283-1
 NCN             2.837-14
 N2H2            3.583-11
 NH2NO2          3.257-16
 N2H4            1.640-15
 N2O             5.8724-7
 N2O3            3.846-14
 N3              8.913-12
 N3H             4.415-12
 *O              4.6096-4
 *OH             6.5715-3
 *O2             1.3385-3
 O3              1.689-10

  * THERMODYNAMIC PROPERTIES FITTED TO 20000.K


                     DETONATION PROPERTIES OF AN IDEAL REACTING GAS
 CASE =                

             REACTANT                       MOLES         ENERGY      TEMP
                                                         KJ/KG-MOL      K
 FUEL        CH4                          0.8500000    -74533.907    300.000
 OXIDANT     O2                           2.3000000        54.358    300.000
 OXIDANT     N2                           8.6524000        53.881    300.000
 FUEL        C2H6                         0.1000000    -83754.210    300.000
 FUEL        C3H8                         0.0500000   -104543.521    300.000

 O/F=   12.89605  %FUEL=  7.196290  R,EQ.RATIO= 1.300000  PHI,EQ.RATIO= 1.300000

 UNBURNED GAS

 P1, BAR           1.0000
 T1, K             300.00
 H1, KJ/KG        -292.09
 M1, (1/n)         27.789
 GAMMA1            1.3789
 SON VEL1,M/SEC     351.8

 BURNED GAS

 P, BAR            17.461
 T, K             2741.55
 RHO, KG/CU M    1.9855 0
 H, KJ/KG          861.24
 U, KJ/KG         -18.222
 G, KJ/KG        -25898.4
 S, KJ/(KG)(K)     9.7608

 M, (1/n)          25.919
 (dLV/dLP)t      -1.00265
 (dLV/dLT)p        1.0633
 Cp, KJ/(KG)(K)    2.0968
 GAMMAs            1.2053
 SON VEL,M/SEC     1029.6

 DETONATION PARAMETERS

 P/P1              17.461
 T/T1               9.138
 M/M1              0.9327
 RHO/RHO1          1.7821
 DET MACH NUMBER   5.2155
 DET VEL,M/SEC     1834.8

 MOLE FRACTIONS

 *C              7.263-13
 *CH             4.205-13
 CH2             2.241-12
 CH3             1.363-11
 CH2OH           2.313-12
 CH3O            4.566-13
 CH4             1.003-11
 CH3OH           3.438-13
 *CN             4.948-10
 CNN             2.677-16
 *CO             7.0322-2
 *CO2            4.8430-2
 COOH            3.1441-7
 C2H             1.340-16
 C2H2,acetylene  1.412-14
 CH2CO,ketene    2.634-13
 O(CH)2O         2.016-15
 HO(CO)2OH       9.501-16
 OCCN            9.275-14
 C2N2            2.620-15
 C2O             3.841-13
 C3O2            1.282-15
 *H              3.0812-3
 HCN             7.7891-8
 HCO             3.8583-7
 HCCO            5.185-14
 HNC             1.0758-8
 HNCO            1.0384-7
 HNO             4.5777-7
 HNO2            3.5132-8
 HNO3            8.110-13
 HO2             6.1790-7
 *H2             3.7558-2
 HCHO,formaldehy 1.8835-8
 HCOOH           8.0690-8
 H2O             1.7651-1
 H2O2            1.6357-7
 *N              4.3646-7
 NCO             6.1103-9
 *NH             2.7570-7
 NH2             2.9940-7
 NH3             8.6149-7
 NH2OH           1.207-10
 *NO             1.3109-3
 NO2             1.6562-7
 NO3             8.961-14
 *N2             6.5800-1
 NCN             3.972-14
 N2H2            4.441-11
 NH2NO2          1.359-16
 N2H4            3.436-15
 N2O             2.8079-7
 N2O3            5.073-15
 N3              5.944-12
 N3H             4.089-12
 *O              1.9944-4
 *OH             4.2112-3
 *O2             3.7720-4
 O3              2.198-11

  * THERMODYNAMIC PROPERTIES FITTED TO 20000.K


                     DETONATION PROPERTIES OF AN IDEAL REACTING GAS
 CASE =                

             REACTANT                       MOLES         ENERGY      TEMP
                                                         KJ/KG-MOL      K
 FUEL        CH4                          0.8500000    -74533.907    300.000
 OXIDANT     O2                           2.3000000        54.358    300.000
 OXIDANT     N2                           8.6524000        53.881    300.000
 FUEL        C2H6                         0.1000000    -83754.210    300.000
 FUEL        C3H8                         0.0500000   -104543.521    300.000

 O/F=   11.97490  %FUEL=  7.707187  R,EQ.RATIO= 1.400000  PHI,EQ.RATIO= 1.400000

 UNBURNED GAS

 P1, BAR           1.0000
 T1, K             300.00
 H1, KJ/KG        -312.96
 M1, (1/n)         27.717
 GAMMA1            1.3776
 SON VEL1,M/SEC     352.1

 BURNED GAS

 P, BAR            17.173
 T, K             2670.61
 RHO, KG/CU M    1.9680 0
 H, KJ/KG          825.71
 U, KJ/KG         -46.922
 G, KJ/KG        -25499.3
 S, KJ/(KG)(K)     9.8573

 M, (1/n)          25.446
 (dLV/dLP)t      -1.00165
 (dLV/dLT)p        1.0394
 Cp, KJ/(KG)(K)    1.9303
 GAMMAs            1.2213
 SON VEL,M/SEC     1032.4

 DETONATION PARAMETERS

 P/P1              17.173
 T/T1               8.902
 M/M1              0.9181
 RHO/RHO1          1.7711
 DET MACH NUMBER   5.1929
 DET VEL,M/SEC     1828.4

 MOLE FRACTIONS

 *C              6.370-13
 *CH             5.040-13
 CH2             4.073-12
 CH3             3.898-11
 CH2OH           4.119-12
 CH3O            7.701-13
 CH4             4.346-11
 CH3OH           8.973-13
 *CN             5.923-10
 CNN             2.463-16
 *CO             8.4012-2
 *CO2            4.0850-2
 COOH            2.5492-7
 C2H             3.304-16
 C2H2,acetylene  6.113-14
 CH2CO,ketene    8.117-13
 O(CH)2O         3.810-15
 HO(CO)2OH       8.538-16
 CH3CO,acetyl    2.691-16
 OCCN            1.473-13
 C2N2            6.984-15
 C2O             5.659-13
 C3O2            2.994-15
 *H              2.8381-3
 HCN             1.5678-7
 HCO             4.5664-7
 HCCO            1.036-13
 HNC             2.0157-8
 HNCO            1.4388-7
 HNO             2.4402-7
 HNO2            1.1852-8
 HNO3            1.484-13
 HO2             1.9354-7
 *H2             5.3450-2
 HCHO,formaldehy 3.1450-8
 HCOOH           9.2784-8
 H2O             1.7279-1
 H2O2            7.2077-8
 *N              2.4811-7
 NCO             5.3149-9
 *NH             2.1429-7
 NH2             3.3645-7
 NH3             1.5123-6
 NH2OH           1.072-10
 *NO             6.0259-4
 NO2             4.1572-8
 NO3             1.092-14
 *N2             6.4277-1
 NCN             4.270-14
 N2H2            4.678-11
 N2H4            5.867-15
 N2O             1.2619-7
 N2O3            5.909-16
 N3              3.382-12
 N3H             3.254-12
 *O              7.7150-5
 *OH             2.4972-3
 *O2             1.0090-4
 O3              2.499-12

  * THERMODYNAMIC PROPERTIES FITTED TO 20000.K


                     DETONATION PROPERTIES OF AN IDEAL REACTING GAS
 CASE =                

             REACTANT                       MOLES         ENERGY      TEMP
                                                         KJ/KG-MOL      K
 FUEL        CH4                          0.8500000    -74533.907    300.000
 OXIDANT     O2                           2.3000000        54.358    300.000
 OXIDANT     N2                           8.6524000        53.881    300.000
 FUEL        C2H6                         0.1000000    -83754.210    300.000
 FUEL        C3H8                         0.0500000   -104543.521    300.000

 O/F=   11.17658  %FUEL=  8.212490  R,EQ.RATIO= 1.500000  PHI,EQ.RATIO= 1.500000

 UNBURNED GAS

 P1, BAR           1.0000
 T1, K             300.00
 H1, KJ/KG        -333.60
 M1, (1/n)         27.645
 GAMMA1            1.3763
 SON VEL1,M/SEC     352.4

 BURNED GAS

 P, BAR            16.852
 T, K             2591.61
 RHO, KG/CU M    1.9536 0
 H, KJ/KG          787.26
 U, KJ/KG         -75.370
 G, KJ/KG        -24993.7
 S, KJ/(KG)(K)     9.9479

 M, (1/n)          24.979
 (dLV/dLP)t      -1.00108
 (dLV/dLT)p        1.0257
 Cp, KJ/(KG)(K)    1.8400
 GAMMAs            1.2334
 SON VEL,M/SEC     1031.5

 DETONATION PARAMETERS

 P/P1              16.852
 T/T1               8.639
 M/M1              0.9036
 RHO/RHO1          1.7626
 DET MACH NUMBER   5.1594
 DET VEL,M/SEC     1818.2

 MOLE FRACTIONS

 *C              4.475-13
 *CH             4.791-13
 CH2             5.919-12
 CH3             9.060-11
 CH2OH           6.172-12
 CH3O            1.084-12
 CH4             1.545-10
 CH3OH           1.977-12
 *CN             6.018-10
 CNN             1.840-16
 *CO             9.5753-2
 *CO2            3.4856-2
 COOH            1.9444-7
 C2H             6.033-16
 C2H2,acetylene  2.029-13
 C2H2,vinylidene 2.133-16
 CH2CO,ketene    2.035-12
 O(CH)2O         6.056-15
 HO(CO)2OH       7.192-16
 CH3CN           2.181-16
 CH3CO,acetyl    7.255-16
 C2H4            1.312-16
 OCCN            1.932-13
 C2N2            1.500-14
 C2O             6.779-13
 C3O2            5.712-15
 *H              2.4115-3
 HCN             2.7520-7
 HCO             4.8212-7
 HCCO            1.665-13
 HNC             3.2512-8
 HNCO            1.8341-7
 HNO             1.2313-7
 HNO2            3.9310-9
 HNO3            2.699-14
 HO2             5.8668-8
 *H2             7.0994-2
 HCHO,formaldehy 4.6664-8
 HCOOH           1.0008-7
 H2O             1.6654-1
 H2O2            3.0592-8
 *N              1.2777-7
 NCO             4.1800-9
 *NH             1.4938-7
 NH2             3.3918-7
 NH3             2.4152-6
 NH2OH           8.657-11
 *NO             2.7237-4
 NO2             1.0391-8
 NO3             1.313-15
 *N2             6.2769-1
 NCN             3.832-14
 N2H2            4.385-11
 N2H4            8.517-15
 N2O             5.5708-8
 N3              1.752-12
 N3H             2.344-12
 *O              2.8399-5
 *OH             1.4235-3
 *O2             2.7115-5
 O3              2.771-13

  * THERMODYNAMIC PROPERTIES FITTED TO 20000.K


                     DETONATION PROPERTIES OF AN IDEAL REACTING GAS
 CASE =                

             REACTANT                       MOLES         ENERGY      TEMP
                                                         KJ/KG-MOL      K
 FUEL        CH4                          0.8500000    -74533.907    300.000
 OXIDANT     O2                           2.3000000        54.358    300.000
 OXIDANT     N2                           8.6524000        53.881    300.000
 FUEL        C2H6                         0.1000000    -83754.210    300.000
 FUEL        C3H8                         0.0500000   -104543.521    300.000

 O/F=   10.47804  %FUEL=  8.712289  R,EQ.RATIO= 1.600000  PHI,EQ.RATIO= 1.600000

 UNBURNED GAS

 P1, BAR           1.0000
 T1, K             300.00
 H1, KJ/KG        -354.02
 M1, (1/n)         27.575
 GAMMA1            1.3751
 SON VEL1,M/SEC     352.7

 BURNED GAS

 P, BAR            16.516
 T, K             2509.78
 RHO, KG/CU M    1.9412 0
 H, KJ/KG          747.40
 U, KJ/KG         -103.41
 G, KJ/KG        -24433.7
 S, KJ/(KG)(K)    10.0332

 M, (1/n)          24.527
 (dLV/dLP)t      -1.00073
 (dLV/dLT)p        1.0174
 Cp, KJ/(KG)(K)    1.7900
 GAMMAs            1.2427
 SON VEL,M/SEC     1028.3

 DETONATION PARAMETERS

 P/P1              16.516
 T/T1               8.366
 M/M1              0.8894
 RHO/RHO1          1.7560
 DET MACH NUMBER   5.1195
 DET VEL,M/SEC     1805.6

 MOLE FRACTIONS

 *C              2.691-13
 *CH             3.858-13
 CH2             7.300-12
 CH3             1.799-10
 CH2OH           8.153-12
 CH3O            1.336-12
 CH4             4.712-10
 CH3OH           3.836-12
 *CN             5.443-10
 CNN             1.189-16
 *CO             1.0582-1
 *CO2            3.0227-2
 COOH            1.4299-7
 C2H             8.857-16
 C2H2,acetylene  5.526-13
 C2H2,vinylidene 4.453-16
 CH2CO,ketene    4.386-12
 O(CH)2O         8.528-15
 HO(CO)2OH       5.861-16
 C2H3,vinyl      1.049-16
 CH3CN           8.264-16
 CH3CO,acetyl    1.627-15
 C2H4            5.821-16
 CH3CHO,ethanal  2.056-16
 OCCN            2.217-13
 C2N2            2.756-14
 C2O             7.033-13
 C3O2            9.486-15
 *H              1.9331-3
 HCN             4.3642-7
 HCO             4.7001-7
 HCCO            2.290-13
 HNC             4.6965-8
 HNCO            2.2056-7
 HNO             6.0115-8
 HNO2            1.3028-9
 HNO3            4.979-15
 HO2             1.7575-8
 *H2             8.9318-2
 HCHO,formaldehy 6.3549-8
 HCOOH           1.0353-7
 H2O             1.5873-1
 H2O2            1.2744-8
 *N              6.1560-8
 NCO             3.0761-9
 *NH             9.6407-8
 NH2             3.1548-7
 NH3             3.5801-6
 NH2OH           6.535-11
 *NO             1.2257-4
 NO2             2.6272-9
 NO3             1.601-16
 *N2             6.1303-1
 NCN             3.028-14
 N2H2            3.776-11
 N2H4            1.093-14
 N2O             2.4486-8
 N3              8.525-13
 N3H             1.575-12
 *O              1.0178-5
 *OH             7.9256-4
 *O2             7.4110-6
 O3              3.088-14

  * THERMODYNAMIC PROPERTIES FITTED TO 20000.K


                     DETONATION PROPERTIES OF AN IDEAL REACTING GAS
 CASE =                

             REACTANT                       MOLES         ENERGY      TEMP
                                                         KJ/KG-MOL      K
 FUEL        CH4                          0.8500000    -74533.907    300.000
 OXIDANT     O2                           2.3000000        54.358    300.000
 OXIDANT     N2                           8.6524000        53.881    300.000
 FUEL        C2H6                         0.1000000    -83754.210    300.000
 FUEL        C3H8                         0.0500000   -104543.521    300.000

 O/F=    9.86168  %FUEL=  9.206675  R,EQ.RATIO= 1.700000  PHI,EQ.RATIO= 1.700000

 UNBURNED GAS

 P1, BAR           1.0000
 T1, K             300.00
 H1, KJ/KG        -374.21
 M1, (1/n)         27.506
 GAMMA1            1.3739
 SON VEL1,M/SEC     353.0

 BURNED GAS

 P, BAR            16.170
 T, K             2427.38
 RHO, KG/CU M    1.9301 0
 H, KJ/KG          706.62
 U, KJ/KG         -131.17
 G, KJ/KG        -23843.4
 S, KJ/(KG)(K)    10.1138

 M, (1/n)          24.090
 (dLV/dLP)t      -1.00050
 (dLV/dLT)p        1.0120
 Cp, KJ/(KG)(K)    1.7614
 GAMMAs            1.2503
 SON VEL,M/SEC     1023.5

 DETONATION PARAMETERS

 P/P1              16.170
 T/T1               8.091
 M/M1              0.8758
 RHO/RHO1          1.7503
 DET MACH NUMBER   5.0751
 DET VEL,M/SEC     1791.4

 MOLE FRACTIONS

 *C              1.435-13
 *CH             2.737-13
 CH2             7.956-12
 CH3             3.181-10
 CH2OH           9.808-12
 CH3O            1.495-12
 CH4             1.2857-9
 CH3OH           6.783-12
 *CN             4.510-10
 *CO             1.1457-1
 *CO2            2.6633-2
 COOH            1.0251-7
 C2H             1.106-15
 C2H2,acetylene  1.303-12
 C2H2,vinylidene 7.884-16
 CH2CO,ketene    8.486-12
 O(CH)2O         1.102-14
 HO(CO)2OH       4.691-16
 C2H3,vinyl      2.434-16
 CH3CN           2.705-15
 CH3CO,acetyl    3.194-15
 C2H4            2.189-15
 CH3CHO,ethanal  5.718-16
 CH3COOH         1.382-16
 OCCN            2.311-13
 C2N2            4.521-14
 C2O             6.566-13
 C3O2            1.430-14
 *H              1.4804-3
 HCN             6.4265-7
 HCO             4.3209-7
 HCCO            2.813-13
 HNC             6.2545-8
 HNCO            2.5456-7
 HNO             2.8576-8
 HNO2            4.307-10
 HNO3            9.257-16
 HO2             5.2027-9
 *H2             1.0784-1
 HCHO,formaldehy 8.1343-8
 HCOOH           1.0415-7
 H2O             1.5008-1
 H2O2            5.2245-9
 *N              2.8108-8
 NCO             2.1556-9
 *NH             5.8540-8
 NH2             2.7574-7
 NH3             5.0180-6
 NH2OH           4.684-11
 *NO             5.4869-5
 NO2             6.680-10
 *N2             5.9889-1
 NCN             2.173-14
 N2H2            3.047-11
 N2H4            1.278-14
 N2O             1.0710-8
 N3              3.947-13
 N3H             1.002-12
 *O              3.5632-6
 *OH             4.3268-4
 *O2             2.0459-6
 O3              3.440-15

  * THERMODYNAMIC PROPERTIES FITTED TO 20000.K


                     DETONATION PROPERTIES OF AN IDEAL REACTING GAS
 CASE =                

             REACTANT                       MOLES         ENERGY      TEMP
                                                         KJ/KG-MOL      K
 FUEL        CH4                          0.8500000    -74533.907    300.000
 OXIDANT     O2                           2.3000000        54.358    300.000
 OXIDANT     N2                           8.6524000        53.881    300.000
 FUEL        C2H6                         0.1000000    -83754.210    300.000
 FUEL        C3H8                         0.0500000   -104543.521    300.000

 O/F=    9.31381  %FUEL=  9.695735  R,EQ.RATIO= 1.800000  PHI,EQ.RATIO= 1.800000

 UNBURNED GAS

 P1, BAR           1.0000
 T1, K             300.00
 H1, KJ/KG        -394.19
 M1, (1/n)         27.438
 GAMMA1            1.3728
 SON VEL1,M/SEC     353.3

 BURNED GAS

 P, BAR            15.818
 T, K             2345.47
 RHO, KG/CU M    1.9200 0
 H, KJ/KG          665.21
 U, KJ/KG         -158.65
 G, KJ/KG        -23235.2
 S, KJ/(KG)(K)    10.1900

 M, (1/n)          23.671
 (dLV/dLP)t      -1.00035
 (dLV/dLT)p        1.0083
 Cp, KJ/(KG)(K)    1.7452
 GAMMAs            1.2568
 SON VEL,M/SEC     1017.5

 DETONATION PARAMETERS

 P/P1              15.818
 T/T1               7.818
 M/M1              0.8627
 RHO/RHO1          1.7454
 DET MACH NUMBER   5.0274
 DET VEL,M/SEC     1776.0

 MOLE FRACTIONS

 *C              6.934-14
 *CH             1.753-13
 CH2             7.872-12
 CH3             5.155-10
 CH2OH           1.099-11
 CH3O            1.553-12
 CH4             3.2433-9
 CH3OH           1.122-11
 *CN             3.484-10
 *CO             1.2232-1
 *CO2            2.3801-2
 COOH            7.2016-8
 C2H             1.218-15
 C2H2,acetylene  2.765-12
 C2H2,vinylidene 1.233-15
 CH2CO,ketene    1.520-11
 O(CH)2O         1.339-14
 HO(CO)2OH       3.716-16
 C2H3,vinyl      4.969-16
 CH3CN           7.978-15
 CH3CO,acetyl    5.690-15
 C2H4            7.320-15
 CH3CHO,ethanal  1.445-15
 CH3COOH         2.804-16
 OCCN            2.238-13
 C2N2            6.826-14
 C2O             5.652-13
 C3O2            2.014-14
 *H              1.0911-3
 HCN             8.9624-7
 HCO             3.7951-7
 HCCO            3.173-13
 HNC             7.8369-8
 HNCO            2.8531-7
 HNO             1.3235-8
 HNO2            1.411-10
 HNO3            1.713-16
 HO2             1.5128-9
 *H2             1.2621-1
 HCHO,formaldehy 9.9498-8
 HCOOH           1.0276-7
 H2O             1.4100-1
 H2O2            2.1026-9
 *N              1.2223-8
 NCO             1.4517-9
 *NH             3.3735-8
 NH2             2.2918-7
 NH3             6.7486-6
 NH2OH           3.219-11
 *NO             2.4319-5
 NO2             1.690-10
 *N2             5.8531-1
 NCN             1.444-14
 N2H2            2.334-11
 N2H4            1.390-14
 N2O             4.6413-9
 N3              1.746-13
 N3H             6.088-13
 *O              1.2149-6
 *OH             2.3154-4
 *O2             5.6412-7
 O3              3.774-16

  * THERMODYNAMIC PROPERTIES FITTED TO 20000.K


                     DETONATION PROPERTIES OF AN IDEAL REACTING GAS
 CASE =                

             REACTANT                       MOLES         ENERGY      TEMP
                                                         KJ/KG-MOL      K
 FUEL        CH4                          0.8500000    -74533.907    300.000
 OXIDANT     O2                           2.3000000        54.358    300.000
 OXIDANT     N2                           8.6524000        53.881    300.000
 FUEL        C2H6                         0.1000000    -83754.210    300.000
 FUEL        C3H8                         0.0500000   -104543.521    300.000

 O/F=    8.82361  %FUEL= 10.179555  R,EQ.RATIO= 1.900000  PHI,EQ.RATIO= 1.900000

 UNBURNED GAS

 P1, BAR           1.0000
 T1, K             300.00
 H1, KJ/KG        -413.96
 M1, (1/n)         27.372
 GAMMA1            1.3717
 SON VEL1,M/SEC     353.6

 BURNED GAS

 P, BAR            15.458
 T, K             2264.48
 RHO, KG/CU M    1.9103 0
 H, KJ/KG          623.23
 U, KJ/KG         -185.95
 G, KJ/KG        -22615.3
 S, KJ/(KG)(K)    10.2622

 M, (1/n)          23.268
 (dLV/dLP)t      -1.00024
 (dLV/dLT)p        1.0057
 Cp, KJ/(KG)(K)    1.7366
 GAMMAs            1.2625
 SON VEL,M/SEC     1010.7

 DETONATION PARAMETERS

 P/P1              15.458
 T/T1               7.548
 M/M1              0.8501
 RHO/RHO1          1.7408
 DET MACH NUMBER   4.9767
 DET VEL,M/SEC     1759.5

 MOLE FRACTIONS

 *C              3.065-14
 *CH             1.028-13
 CH2             7.196-12
 CH3             7.822-10
 CH2OH           1.165-11
 CH3O            1.519-12
 CH4             7.7529-9
 CH3OH           1.768-11
 *CN             2.535-10
 *CO             1.2927-1
 *CO2            2.1526-2
 COOH            4.9646-8
 C2H             1.214-15
 C2H2,acetylene  5.429-12
 C2H2,vinylidene 1.749-15
 CH2CO,ketene    2.573-11
 O(CH)2O         1.552-14
 HO(CO)2OH       2.922-16
 C2H3,vinyl      9.207-16
 CH3CN           2.189-14
 CH3CO,acetyl    9.432-15
 C2H4            2.252-14
 CH3CHO,ethanal  3.412-15
 CH3COOH         5.425-16
 OCCN            2.042-13
 C2N2            9.683-14
 C2O             4.549-13
 C3O2            2.698-14
 *H              7.7676-4
 HCN             1.2003-6
 HCO             3.2089-7
 HCCO            3.345-13
 HNC             9.3679-8
 HNCO            3.1289-7
 HNO             5.9584-9
 HNO2            4.537-11
 HO2             4.283-10
 *H2             1.4422-1
 HCHO,formaldehy 1.1762-7
 HCOOH           9.9963-8
 H2O             1.3179-1
 H2O2            8.265-10
 *N              5.0623-9
 NCO             9.433-10
 *NH             1.8518-8
 NH2             1.8247-7
 NH3             8.8035-6
 NH2OH           2.130-11
 *NO             1.0607-5
 NO2             4.204-11
 *N2             5.7227-1
 NCN             8.967-15
 N2H2            1.709-11
 N2H4            1.427-14
 N2O             1.9808-9
 N3              7.388-14
 N3H             3.545-13
 *O              4.0096-7
 *OH             1.2115-4
 *O2             1.5346-7

  * THERMODYNAMIC PROPERTIES FITTED TO 20000.K


                     DETONATION PROPERTIES OF AN IDEAL REACTING GAS
 CASE =                

             REACTANT                       MOLES         ENERGY      TEMP
                                                         KJ/KG-MOL      K
 FUEL        CH4                          0.8500000    -74533.907    300.000
 OXIDANT     O2                           2.3000000        54.358    300.000
 OXIDANT     N2                           8.6524000        53.881    300.000
 FUEL        C2H6                         0.1000000    -83754.210    300.000
 FUEL        C3H8                         0.0500000   -104543.521    300.000

 O/F=    8.38243  %FUEL= 10.658218  R,EQ.RATIO= 2.000000  PHI,EQ.RATIO= 2.000000

 UNBURNED GAS

 P1, BAR           1.0000
 T1, K             300.00
 H1, KJ/KG        -433.51
 M1, (1/n)         27.306
 GAMMA1            1.3705
 SON VEL1,M/SEC     353.8

 BURNED GAS

 P, BAR            15.091
 T, K             2184.67
 RHO, KG/CU M    1.9010 0
 H, KJ/KG          580.73
 U, KJ/KG         -213.12
 G, KJ/KG        -21987.6
 S, KJ/(KG)(K)    10.3303

 M, (1/n)          22.882
 (dLV/dLP)t      -1.00016
 (dLV/dLT)p        1.0039
 Cp, KJ/(KG)(K)    1.7330
 GAMMAs            1.2677
 SON VEL,M/SEC     1003.2

 DETONATION PARAMETERS

 P/P1              15.091
 T/T1               7.282
 M/M1              0.8380
 RHO/RHO1          1.7366
 DET MACH NUMBER   4.9234
 DET VEL,M/SEC     1742.1

 MOLE FRACTIONS

 *C              1.246-14
 *CH             5.566-14
 CH2             6.150-12
 CH3             1.1285-9
 CH2OH           1.179-11
 CH3O            1.415-12
 CH4             1.7893-8
 CH3OH           2.690-11
 *CN             1.749-10
 *CO             1.3560-1
 *CO2            1.9665-2
 COOH            3.3589-8
 C2H             1.112-15
 C2H2,acetylene  1.006-11
 C2H2,vinylidene 2.298-15
 CH2CO,ketene    4.185-11
 O(CH)2O         1.735-14
 HO(CO)2OH       2.284-16
 C2H3,vinyl      1.584-15
 CH3CN           5.715-14
 CH3CO,acetyl    1.482-14
 C2H4            6.548-14
 CH3CHO,ethanal  7.695-15
 CH3COOH         1.017-15
 OCCN            1.774-13
 C2N2            1.309-13
 C2O             3.455-13
 C3O2            3.482-14
 *H              5.3522-4
 HCN             1.5590-6
 HCO             2.6245-7
 HCCO            3.336-13
 HNC             1.0788-7
 HNCO            3.3756-7
 HNO             2.5991-9
 HNO2            1.422-11
 HO2             1.171-10
 *H2             1.6174-1
 HCHO,formaldehy 1.3546-7
 HCOOH           9.6197-8
 H2O             1.2260-1
 H2O2            3.156-10
 *N              1.9941-9
 NCO             5.926-10
 *NH             9.6974-9
 NH2             1.3981-7
 NH3             1.1230-5
 NH2OH           1.362-11
 *NO             4.5262-6
 NO2             1.016-11
 *N2             5.5977-1
 NCN             5.241-15
 N2H2            1.203-11
 N2H4            1.397-14
 N2O             8.277-10
 N3              2.984-14
 N3H             1.983-13
 *O              1.2730-7
 *OH             6.1797-5
 *O2             4.0734-8

  * THERMODYNAMIC PROPERTIES FITTED TO 20000.K



