
 *******************************************************************************

         NASA-GLENN CHEMICAL EQUILIBRIUM PROGRAM CEA2, MAY 21, 2004
                   BY  BONNIE MCBRIDE AND SANFORD GORDON
      REFS: NASA RP-1311, PART I, 1994 AND NASA RP-1311, PART II, 1996

 *******************************************************************************



 problem    phi,eq.ratio=0.5,0.6,0.7,0.8,0.9,1,1.1,1.2,1.3,1.4,1.5,1.6,1.7,1.8,1.
 9,2,
       det   t,k=300,  p,bar=1,
 react
   fuel=CO moles=0.5 t,k=300
   oxid=O2 moles=1 t,k=300
   oxid=N2 moles=3.7619 t,k=300
   fuel=H2 moles=0.5 t,k=300
 output
      trace=1e-16 siunits short
 end


                     DETONATION PROPERTIES OF AN IDEAL REACTING GAS
 CASE =                

             REACTANT                       MOLES         ENERGY      TEMP
                                                         KJ/KG-MOL      K
 FUEL        CO                           0.5000000   -110481.283    300.000
 OXIDANT     O2                           1.0000000        54.358    300.000
 OXIDANT     N2                           3.7619000        53.881    300.000
 FUEL        H2                           0.5000000        53.359    300.000

 O/F=    9.15090  %FUEL=  9.851341  R,EQ.RATIO= 0.600000  PHI,EQ.RATIO= 0.500000

 UNBURNED GAS

 P1, BAR           1.0000
 T1, K             300.00
 H1, KJ/KG        -360.62
 M1, (1/n)         26.449
 GAMMA1            1.3991
 SON VEL1,M/SEC     363.2

 BURNED GAS

 P, BAR            12.058
 T, K             2263.56
 RHO, KG/CU M    1.8529 0
 H, KJ/KG          459.19
 U, KJ/KG         -191.56
 G, KJ/KG        -19316.3
 S, KJ/(KG)(K)     8.7364

 M, (1/n)          28.921
 (dLV/dLP)t      -1.00054
 (dLV/dLT)p        1.0161
 Cp, KJ/(KG)(K)    1.5999
 GAMMAs            1.2270
 SON VEL,M/SEC      893.6

 DETONATION PARAMETERS

 P/P1              12.058
 T/T1               7.545
 M/M1              1.0935
 RHO/RHO1          1.7474
 DET MACH NUMBER   4.2986
 DET VEL,M/SEC     1561.4

 MOLE FRACTIONS

 *CN             2.340-15
 *CO             8.3050-4
 *CO2            9.4058-2
 COOH            6.1565-9
 *H              2.8230-5
 HCN             3.178-13
 HCO             5.854-11
 HNC             2.477-14
 HNCO            5.632-11
 HNO             1.4435-7
 HNO2            7.4605-7
 HNO3            3.457-10
 HO2             7.1495-6
 *H2             1.5007-4
 HCHO,formaldehy 6.134-13
 HCOOH           3.544-10
 H2O             9.3225-2
 H2O2            3.9430-7
 *N              6.3153-9
 NCO             5.927-12
 *NH             6.599-10
 NH2             1.860-10
 NH3             2.569-10
 NH2OH           4.203-13
 *NO             9.0219-3
 NO2             2.4203-5
 NO3             1.089-10
 *N2             7.0939-1
 N2H2            1.712-14
 N2O             1.6568-6
 N2O3            4.388-12
 N2O4            4.468-16
 N3              8.919-14
 N3H             1.223-14
 *O              3.4559-4
 *OH             2.9894-3
 *O2             8.9923-2
 O3              1.5804-8

  * THERMODYNAMIC PROPERTIES FITTED TO 20000.K


                     DETONATION PROPERTIES OF AN IDEAL REACTING GAS
 CASE =                

             REACTANT                       MOLES         ENERGY      TEMP
                                                         KJ/KG-MOL      K
 FUEL        CO                           0.5000000   -110481.283    300.000
 OXIDANT     O2                           1.0000000        54.358    300.000
 OXIDANT     N2                           3.7619000        53.881    300.000
 FUEL        H2                           0.5000000        53.359    300.000

 O/F=    7.62575  %FUEL= 11.593192  R,EQ.RATIO= 0.692308  PHI,EQ.RATIO= 0.600000

 UNBURNED GAS

 P1, BAR           1.0000
 T1, K             300.00
 H1, KJ/KG        -424.71
 M1, (1/n)         26.065
 GAMMA1            1.3992
 SON VEL1,M/SEC     365.9

 BURNED GAS

 P, BAR            13.181
 T, K             2474.57
 RHO, KG/CU M    1.8489 0
 H, KJ/KG          487.53
 U, KJ/KG         -225.38
 G, KJ/KG        -21527.3
 S, KJ/(KG)(K)     8.8964

 M, (1/n)          28.860
 (dLV/dLP)t      -1.00172
 (dLV/dLT)p        1.0465
 Cp, KJ/(KG)(K)    1.8641
 GAMMAs            1.2013
 SON VEL,M/SEC      925.4

 DETONATION PARAMETERS

 P/P1              13.181
 T/T1               8.249
 M/M1              1.1072
 RHO/RHO1          1.7693
 DET MACH NUMBER   4.4746
 DET VEL,M/SEC     1637.3

 MOLE FRACTIONS

 CH2OH           1.021-16
 *CN             1.420-13
 *CO             3.6406-3
 *CO2            1.0779-1
 COOH            3.2903-8
 *H              1.5104-4
 HCN             1.019-11
 HCO             1.0622-9
 HNC             1.051-12
 HNCO            5.256-10
 HNO             4.1657-7
 HNO2            8.7629-7
 HNO3            2.973-10
 HO2             1.1775-5
 *H2             5.9421-4
 HCHO,formaldehy 1.161-11
 HCOOH           1.9316-9
 H2O             1.0772-1
 H2O2            6.8853-7
 *N              5.2762-8
 NCO             8.453-11
 *NH             6.5512-9
 NH2             1.7570-9
 NH3             1.7097-9
 NH2OH           2.662-12
 *NO             1.1775-2
 NO2             2.2501-5
 NO3             1.141-10
 *N2             6.9276-1
 N2H2            1.949-13
 NH2NO2          2.438-16
 N2O             2.2327-6
 N2O3            5.211-12
 N2O4            3.613-16
 N3              6.752-13
 N3H             1.003-13
 *O              9.2013-4
 *OH             6.0730-3
 *O2             6.8544-2
 O3              2.2057-8

  * THERMODYNAMIC PROPERTIES FITTED TO 20000.K


                     DETONATION PROPERTIES OF AN IDEAL REACTING GAS
 CASE =                

             REACTANT                       MOLES         ENERGY      TEMP
                                                         KJ/KG-MOL      K
 FUEL        CO                           0.5000000   -110481.283    300.000
 OXIDANT     O2                           1.0000000        54.358    300.000
 OXIDANT     N2                           3.7619000        53.881    300.000
 FUEL        H2                           0.5000000        53.359    300.000

 O/F=    6.53636  %FUEL= 13.269007  R,EQ.RATIO= 0.777778  PHI,EQ.RATIO= 0.700000

 UNBURNED GAS

 P1, BAR           1.0000
 T1, K             300.00
 H1, KJ/KG        -486.38
 M1, (1/n)         25.706
 GAMMA1            1.3993
 SON VEL1,M/SEC     368.5

 BURNED GAS

 P, BAR            14.034
 T, K             2632.05
 RHO, KG/CU M    1.8426 0
 H, KJ/KG          499.65
 U, KJ/KG         -261.97
 G, KJ/KG        -23287.7
 S, KJ/(KG)(K)     9.0376

 M, (1/n)          28.734
 (dLV/dLP)t      -1.00385
 (dLV/dLT)p        1.0974
 Cp, KJ/(KG)(K)    2.2419
 GAMMAs            1.1787
 SON VEL,M/SEC      947.5

 DETONATION PARAMETERS

 P/P1              14.034
 T/T1               8.773
 M/M1              1.1178
 RHO/RHO1          1.7880
 DET MACH NUMBER   4.5974
 DET VEL,M/SEC     1694.0

 MOLE FRACTIONS

 *C              2.138-15
 *CH             2.835-16
 CH2             4.071-16
 CH3             7.074-16
 CH2OH           1.688-15
 CH3O            3.061-16
 CH4             1.401-16
 *CN             2.223-12
 *CO             9.9231-3
 *CO2            1.1706-1
 COOH            1.0029-7
 HO(CO)2OH       1.302-16
 C2O             2.245-16
 *H              4.6111-4
 HCN             1.109-10
 HCO             7.5327-9
 HNC             1.369-11
 HNCO            2.4334-9
 HNO             8.0586-7
 HNO2            8.9211-7
 HNO3            2.333-10
 HO2             1.4897-5
 *H2             1.5597-3
 HCHO,formaldehy 8.852-11
 HCOOH           6.2471-9
 H2O             1.2051-1
 H2O2            9.4503-7
 *N              2.0482-7
 NCO             4.919-10
 *NH             2.9647-8
 NH2             8.0528-9
 NH3             6.5424-9
 NH2OH           9.318-12
 *NO             1.3028-2
 NO2             1.8852-5
 NO3             9.713-11
 *N2             6.7588-1
 NCN             1.414-16
 N2H2            1.012-12
 NH2NO2          5.089-16
 N2O             2.5260-6
 N2O3            4.806-12
 N2O4            2.454-16
 N3              2.455-12
 N3H             4.011-13
 *O              1.6137-3
 *OH             9.3388-3
 *O2             5.0588-2
 O3              2.2820-8

  * THERMODYNAMIC PROPERTIES FITTED TO 20000.K


                     DETONATION PROPERTIES OF AN IDEAL REACTING GAS
 CASE =                

             REACTANT                       MOLES         ENERGY      TEMP
                                                         KJ/KG-MOL      K
 FUEL        CO                           0.5000000   -110481.283    300.000
 OXIDANT     O2                           1.0000000        54.358    300.000
 OXIDANT     N2                           3.7619000        53.881    300.000
 FUEL        H2                           0.5000000        53.359    300.000

 O/F=    5.71931  %FUEL= 14.882471  R,EQ.RATIO= 0.857143  PHI,EQ.RATIO= 0.800000

 UNBURNED GAS

 P1, BAR           1.0000
 T1, K             300.00
 H1, KJ/KG        -545.75
 M1, (1/n)         25.370
 GAMMA1            1.3994
 SON VEL1,M/SEC     370.9

 BURNED GAS

 P, BAR            14.635
 T, K             2743.17
 RHO, KG/CU M    1.8319 0
 H, KJ/KG          496.73
 U, KJ/KG         -302.21
 G, KJ/KG        -24643.4
 S, KJ/(KG)(K)     9.1646

 M, (1/n)          28.548
 (dLV/dLP)t      -1.00650
 (dLV/dLT)p        1.1574
 Cp, KJ/(KG)(K)    2.6594
 GAMMAs            1.1631
 SON VEL,M/SEC      964.0

 DETONATION PARAMETERS

 P/P1              14.635
 T/T1               9.144
 M/M1              1.1253
 RHO/RHO1          1.8010
 DET MACH NUMBER   4.6806
 DET VEL,M/SEC     1736.1

 MOLE FRACTIONS

 *C              2.317-14
 *CH             3.538-15
 CH2             4.961-15
 CH3             7.928-15
 CH2OH           1.207-14
 CH3O            2.385-15
 CH4             1.535-15
 CH3OH           4.723-16
 *CN             1.435-11
 *CO             1.9767-2
 *CO2            1.2173-1
 COOH            2.1005-7
 CH2CO,ketene    1.363-16
 HO(CO)2OH       3.528-16
 OCCN            6.322-16
 C2O             2.864-15
 *H              9.7835-4
 HCN             5.931-10
 HCO             2.8807-8
 HCCO            1.020-16
 HNC             8.205-11
 HNCO            7.0748-9
 HNO             1.1955-6
 HNO2            8.2245-7
 HNO3            1.708-10
 HO2             1.5822-5
 *H2             3.1362-3
 HCHO,formaldehy 3.706-10
 HCOOH           1.4204-8
 H2O             1.3187-1
 H2O2            1.1038-6
 *N              4.8309-7
 NCO             1.5841-9
 *NH             8.0469-8
 NH2             2.3016-8
 NH3             1.7412-8
 NH2OH           2.199-11
 *NO             1.2935-2
 NO2             1.4697-5
 NO3             7.170-11
 *N2             6.5890-1
 NCN             1.058-15
 N2H2            3.131-12
 NH2NO2          7.726-16
 N2O             2.5384-6
 N2O3            3.721-12
 N2O4            1.467-16
 N3              5.517-12
 N3H             1.000-12
 *O              2.1573-3
 *OH             1.1982-2
 *O2             3.6500-2
 O3              1.9239-8

  * THERMODYNAMIC PROPERTIES FITTED TO 20000.K


                     DETONATION PROPERTIES OF AN IDEAL REACTING GAS
 CASE =                

             REACTANT                       MOLES         ENERGY      TEMP
                                                         KJ/KG-MOL      K
 FUEL        CO                           0.5000000   -110481.283    300.000
 OXIDANT     O2                           1.0000000        54.358    300.000
 OXIDANT     N2                           3.7619000        53.881    300.000
 FUEL        H2                           0.5000000        53.359    300.000

 O/F=    5.08383  %FUEL= 16.437001  R,EQ.RATIO= 0.931034  PHI,EQ.RATIO= 0.900000

 UNBURNED GAS

 P1, BAR           1.0000
 T1, K             300.00
 H1, KJ/KG        -602.95
 M1, (1/n)         25.055
 GAMMA1            1.3994
 SON VEL1,M/SEC     373.3

 BURNED GAS

 P, BAR            15.039
 T, K             2819.25
 RHO, KG/CU M    1.8169 0
 H, KJ/KG          482.20
 U, KJ/KG         -345.50
 G, KJ/KG        -25682.4
 S, KJ/(KG)(K)     9.2807

 M, (1/n)          28.320
 (dLV/dLP)t      -1.00891
 (dLV/dLT)p        1.2101
 Cp, KJ/(KG)(K)    3.0184
 GAMMAs            1.1541
 SON VEL,M/SEC      977.4

 DETONATION PARAMETERS

 P/P1              15.039
 T/T1               9.397
 M/M1              1.1303
 RHO/RHO1          1.8089
 DET MACH NUMBER   4.7364
 DET VEL,M/SEC     1767.9

 MOLE FRACTIONS

 *C              1.198-13
 *CH             2.090-14
 CH2             3.011-14
 CH3             4.762-14
 CH2OH           5.077-14
 CH3O            1.061-14
 CH4             9.503-15
 CH3OH           2.115-15
 *CN             5.306-11
 *CO             3.2314-2
 *CO2            1.2272-1
 COOH            3.4571-7
 CH2CO,ketene    9.581-16
 HO(CO)2OH       7.038-16
 OCCN            3.472-15
 C2O             1.731-14
 *H              1.6513-3
 HCN             2.0293-9
 HCO             7.4572-8
 HCCO            7.093-16
 HNC             3.019-10
 HNCO            1.5308-8
 HNO             1.4934-6
 HNO2            7.0729-7
 HNO3            1.184-10
 HO2             1.4961-5
 *H2             5.3365-3
 HCHO,formaldehy 1.0613-9
 HCOOH           2.5726-8
 H2O             1.4202-1
 H2O2            1.1575-6
 *N              8.3206-7
 NCO             3.5060-9
 *NH             1.5820-7
 NH2             4.8817-8
 NH3             3.6833-8
 NH2OH           4.024-11
 *NO             1.1962-2
 NO2             1.0878-5
 NO3             4.787-11
 *N2             6.4203-1
 NCN             4.278-15
 N2H2            6.962-12
 NH2NO2          9.504-16
 N2O             2.3565-6
 N2O3            2.549-12
 N3              9.130-12
 N3H             1.847-12
 *O              2.4246-3
 *OH             1.3685-2
 *O2             2.5825-2
 O3              1.4083-8

  * THERMODYNAMIC PROPERTIES FITTED TO 20000.K


                     DETONATION PROPERTIES OF AN IDEAL REACTING GAS
 CASE =                

             REACTANT                       MOLES         ENERGY      TEMP
                                                         KJ/KG-MOL      K
 FUEL        CO                           0.5000000   -110481.283    300.000
 OXIDANT     O2                           1.0000000        54.358    300.000
 OXIDANT     N2                           3.7619000        53.881    300.000
 FUEL        H2                           0.5000000        53.359    300.000

 O/F=    4.57545  %FUEL= 17.935768  R,EQ.RATIO= 1.000000  PHI,EQ.RATIO= 1.000000

 UNBURNED GAS

 P1, BAR           1.0000
 T1, K             300.00
 H1, KJ/KG        -658.10
 M1, (1/n)         24.758
 GAMMA1            1.3995
 SON VEL1,M/SEC     375.5

 BURNED GAS

 P, BAR            15.294
 T, K             2869.59
 RHO, KG/CU M    1.7991 0
 H, KJ/KG          459.26
 U, KJ/KG         -390.84
 G, KJ/KG        -26480.2
 S, KJ/(KG)(K)     9.3879

 M, (1/n)          28.066
 (dLV/dLP)t      -1.01050
 (dLV/dLT)p        1.2434
 Cp, KJ/(KG)(K)    3.2489
 GAMMAs            1.1500
 SON VEL,M/SEC      988.8

 DETONATION PARAMETERS

 P/P1              15.294
 T/T1               9.565
 M/M1              1.1336
 RHO/RHO1          1.8127
 DET MACH NUMBER   4.7730
 DET VEL,M/SEC     1792.3

 MOLE FRACTIONS

 *C              3.856-13
 *CH             7.652-14
 CH2             1.172-13
 CH3             1.926-13
 CH2OH           1.522-13
 CH3O            3.295-14
 CH4             4.099-14
 CH3OH           6.897-15
 *CN             1.375-10
 CNN             1.021-16
 *CO             4.6606-2
 *CO2            1.2105-1
 COOH            4.8609-7
 CH2CO,ketene    4.328-15
 O(CH)2O         1.581-16
 HO(CO)2OH       1.147-15
 OCCN            1.221-14
 C2O             6.503-14
 *H              2.4049-3
 HCN             5.2343-9
 HCO             1.5040-7
 HCCO            3.044-15
 HNC             8.152-10
 HNCO            2.7429-8
 HNO             1.6613-6
 HNO2            5.7654-7
 HNO3            7.814-11
 HO2             1.3014-5
 *H2             8.1662-3
 HCHO,formaldehy 2.3857-9
 HCOOH           4.0186-8
 H2O             1.5105-1
 H2O2            1.1239-6
 *N              1.1682-6
 NCO             6.0956-9
 *NH             2.5245-7
 NH2             8.5454-8
 NH3             6.7298-8
 NH2OH           6.231-11
 *NO             1.0518-2
 NO2             7.7127-6
 NO3             2.952-11
 *N2             6.2542-1
 NCN             1.167-14
 N2H2            1.250-11
 NH2NO2          1.011-15
 N2H4            1.438-16
 N2O             2.0672-6
 N2O3            1.590-12
 N3              1.237-11
 N3H             2.805-12
 *O              2.4242-3
 *OH             1.4450-2
 *O2             1.7884-2
 O3              9.2630-9

  * THERMODYNAMIC PROPERTIES FITTED TO 20000.K


                     DETONATION PROPERTIES OF AN IDEAL REACTING GAS
 CASE =                

             REACTANT                       MOLES         ENERGY      TEMP
                                                         KJ/KG-MOL      K
 FUEL        CO                           0.5000000   -110481.283    300.000
 OXIDANT     O2                           1.0000000        54.358    300.000
 OXIDANT     N2                           3.7619000        53.881    300.000
 FUEL        H2                           0.5000000        53.359    300.000

 O/F=    4.15950  %FUEL= 19.381719  R,EQ.RATIO= 1.064516  PHI,EQ.RATIO= 1.100000

 UNBURNED GAS

 P1, BAR           1.0000
 T1, K             300.00
 H1, KJ/KG        -711.30
 M1, (1/n)         24.478
 GAMMA1            1.3996
 SON VEL1,M/SEC     377.7

 BURNED GAS

 P, BAR            15.439
 T, K             2900.41
 RHO, KG/CU M    1.7796 0
 H, KJ/KG          430.11
 U, KJ/KG         -437.47
 G, KJ/KG        -27088.1
 S, KJ/(KG)(K)     9.4877

 M, (1/n)          27.796
 (dLV/dLP)t      -1.01101
 (dLV/dLT)p        1.2528
 Cp, KJ/(KG)(K)    3.3258
 GAMMAs            1.1496
 SON VEL,M/SEC      998.7

 DETONATION PARAMETERS

 P/P1              15.439
 T/T1               9.668
 M/M1              1.1356
 RHO/RHO1          1.8135
 DET MACH NUMBER   4.7956
 DET VEL,M/SEC     1811.1

 MOLE FRACTIONS

 *C              9.012-13
 *CH             2.031-13
 CH2             3.395-13
 CH3             5.999-13
 CH2OH           3.634-13
 CH3O            8.040-14
 CH4             1.396-13
 CH3OH           1.822-14
 *CN             2.807-10
 CNN             2.269-16
 *CO             6.1894-2
 *CO2            1.1753-1
 COOH            6.1305-7
 C2H2,acetylene  2.892-16
 CH2CO,ketene    1.461-14
 O(CH)2O         4.116-16
 HO(CO)2OH       1.625-15
 OCCN            3.192-14
 C2N2            2.006-16
 C2O             1.778-13
 C3O2            2.496-16
 *H              3.1661-3
 HCN             1.1212-8
 HCO             2.5649-7
 HCCO            9.475-15
 HNC             1.7946-9
 HNCO            4.3354-8
 HNO             1.6982-6
 HNO2            4.4887-7
 HNO3            4.919-11
 HO2             1.0591-5
 *H2             1.1645-2
 HCHO,formaldehy 4.5653-9
 HCOOH           5.6757-8
 H2O             1.5899-1
 H2O2            1.0271-6
 *N              1.4225-6
 NCO             8.9975-9
 *NH             3.4893-7
 NH2             1.3127-7
 NH3             1.1155-7
 NH2OH           8.579-11
 *NO             8.8844-3
 NO2             5.2542-6
 NO3             1.696-11
 *N2             6.0917-1
 NCN             2.444-14
 N2H2            1.939-11
 NH2NO2          9.650-16
 N2H4            3.034-16
 N2O             1.7341-6
 N2O3            9.149-13
 N3              1.459-11
 N3H             3.722-12
 *O              2.2233-3
 *OH             1.4398-2
 *O2             1.2082-2
 O3              5.5654-9

  * THERMODYNAMIC PROPERTIES FITTED TO 20000.K


                     DETONATION PROPERTIES OF AN IDEAL REACTING GAS
 CASE =                

             REACTANT                       MOLES         ENERGY      TEMP
                                                         KJ/KG-MOL      K
 FUEL        CO                           0.5000000   -110481.283    300.000
 OXIDANT     O2                           1.0000000        54.358    300.000
 OXIDANT     N2                           3.7619000        53.881    300.000
 FUEL        H2                           0.5000000        53.359    300.000

 O/F=    3.81288  %FUEL= 20.777597  R,EQ.RATIO= 1.125000  PHI,EQ.RATIO= 1.200000

 UNBURNED GAS

 P1, BAR           1.0000
 T1, K             300.00
 H1, KJ/KG        -762.66
 M1, (1/n)         24.213
 GAMMA1            1.3997
 SON VEL1,M/SEC     379.7

 BURNED GAS

 P, BAR            15.497
 T, K             2915.74
 RHO, KG/CU M    1.7590 0
 H, KJ/KG          396.13
 U, KJ/KG         -484.90
 G, KJ/KG        -27539.2
 S, KJ/(KG)(K)     9.5809

 M, (1/n)          27.517
 (dLV/dLP)t      -1.01054
 (dLV/dLT)p        1.2410
 Cp, KJ/(KG)(K)    3.2652
 GAMMAs            1.1521
 SON VEL,M/SEC     1007.5

 DETONATION PARAMETERS

 P/P1              15.497
 T/T1               9.719
 M/M1              1.1364
 RHO/RHO1          1.8120
 DET MACH NUMBER   4.8076
 DET VEL,M/SEC     1825.5

 MOLE FRACTIONS

 *C              1.671-12
 *CH             4.279-13
 CH2             7.967-13
 CH3             1.558-12
 CH2OH           7.390-13
 CH3O            1.652-13
 CH4             4.041-13
 CH3OH           4.155-14
 *CN             4.838-10
 CNN             4.047-16
 *CO             7.7628-2
 *CO2            1.1278-1
 COOH            7.1374-7
 C2H2,acetylene  1.045-15
 CH2CO,ketene    4.033-14
 O(CH)2O         8.922-16
 HO(CO)2OH       2.080-15
 OCCN            6.770-14
 C2N2            5.310-16
 C2O             3.883-13
 C3O2            6.491-16
 *H              3.8701-3
 HCN             2.1118-8
 HCO             3.8813-7
 HCCO            2.354-14
 HNC             3.4256-9
 HNCO            6.2757-8
 HNO             1.6239-6
 HNO2            3.3502-7
 HNO3            2.951-11
 HO2             8.1363-6
 *H2             1.5801-2
 HCHO,formaldehy 7.8024-9
 HCOOH           7.4559-8
 H2O             1.6582-1
 H2O2            8.9148-7
 *N              1.5565-6
 NCO             1.1799-8
 *NH             4.3367-7
 NH2             1.8340-7
 NH3             1.7267-7
 NH2OH           1.082-10
 *NO             7.2491-3
 NO2             3.4412-6
 NO3             9.116-12
 *N2             5.9329-1
 NCN             4.235-14
 N2H2            2.703-11
 NH2NO2          8.433-16
 N2H4            5.602-16
 N2O             1.4001-6
 N2O3            4.884-13
 N3              1.549-11
 N3H             4.469-12
 *O              1.9022-3
 *OH             1.3694-2
 *O2             7.9372-3
 O3              3.0793-9

  * THERMODYNAMIC PROPERTIES FITTED TO 20000.K


                     DETONATION PROPERTIES OF AN IDEAL REACTING GAS
 CASE =                

             REACTANT                       MOLES         ENERGY      TEMP
                                                         KJ/KG-MOL      K
 FUEL        CO                           0.5000000   -110481.283    300.000
 OXIDANT     O2                           1.0000000        54.358    300.000
 OXIDANT     N2                           3.7619000        53.881    300.000
 FUEL        H2                           0.5000000        53.359    300.000

 O/F=    3.51958  %FUEL= 22.125960  R,EQ.RATIO= 1.181818  PHI,EQ.RATIO= 1.300000

 UNBURNED GAS

 P1, BAR           1.0000
 T1, K             300.00
 H1, KJ/KG        -812.28
 M1, (1/n)         23.963
 GAMMA1            1.3997
 SON VEL1,M/SEC     381.7

 BURNED GAS

 P, BAR            15.482
 T, K             2918.28
 RHO, KG/CU M    1.7376 0
 H, KJ/KG          358.16
 U, KJ/KG         -532.85
 G, KJ/KG        -27856.5
 S, KJ/(KG)(K)     9.6682

 M, (1/n)          27.232
 (dLV/dLP)t      -1.00942
 (dLV/dLT)p        1.2151
 Cp, KJ/(KG)(K)    3.1098
 GAMMAs            1.1568
 SON VEL,M/SEC     1015.2

 DETONATION PARAMETERS

 P/P1              15.482
 T/T1               9.728
 M/M1              1.1364
 RHO/RHO1          1.8086
 DET MACH NUMBER   4.8105
 DET VEL,M/SEC     1836.2

 MOLE FRACTIONS

 *C              2.596-12
 *CH             7.561-13
 CH2             1.597-12
 CH3             3.537-12
 CH2OH           1.332-12
 CH3O            2.982-13
 CH4             1.041-12
 CH3OH           8.501-14
 *CN             7.337-10
 CNN             6.099-16
 *CO             9.3398-2
 *CO2            1.0727-1
 COOH            7.8083-7
 C2H             1.052-16
 C2H2,acetylene  3.150-15
 CH2CO,ketene    9.606-14
 O(CH)2O         1.687-15
 HO(CO)2OH       2.462-15
 OCCN            1.230-13
 C2N2            1.196-15
 C2O             7.171-13
 C3O2            1.427-15
 *H              4.4639-3
 HCN             3.6206-8
 HCO             5.3662-7
 HCCO            4.947-14
 HNC             5.8860-9
 HNCO            8.5121-8
 HNO             1.4688-6
 HNO2            2.4034-7
 HNO3            1.687-11
 HO2             5.9343-6
 *H2             2.0657-2
 HCHO,formaldehy 1.2262-8
 HCOOH           9.2703-8
 H2O             1.7151-1
 H2O2            7.3913-7
 *N              1.5637-6
 NCO             1.4132-8
 *NH             4.9568-7
 NH2             2.3810-7
 NH3             2.5401-7
 NH2OH           1.271-10
 *NO             5.7329-3
 NO2             2.1686-6
 NO3             4.594-12
 *N2             5.7783-1
 NCN             6.352-14
 N2H2            3.466-11
 NH2NO2          6.837-16
 N2H4            9.341-16
 N2O             1.0923-6
 N2O3            2.430-13
 N3              1.512-11
 N3H             4.961-12
 *O              1.5342-3
 *OH             1.2522-2
 *O2             5.0639-3
 O3              1.5779-9

  * THERMODYNAMIC PROPERTIES FITTED TO 20000.K


                     DETONATION PROPERTIES OF AN IDEAL REACTING GAS
 CASE =                

             REACTANT                       MOLES         ENERGY      TEMP
                                                         KJ/KG-MOL      K
 FUEL        CO                           0.5000000   -110481.283    300.000
 OXIDANT     O2                           1.0000000        54.358    300.000
 OXIDANT     N2                           3.7619000        53.881    300.000
 FUEL        H2                           0.5000000        53.359    300.000

 O/F=    3.26818  %FUEL= 23.429193  R,EQ.RATIO= 1.235294  PHI,EQ.RATIO= 1.400000

 UNBURNED GAS

 P1, BAR           1.0000
 T1, K             300.00
 H1, KJ/KG        -860.23
 M1, (1/n)         23.727
 GAMMA1            1.3998
 SON VEL1,M/SEC     383.6

 BURNED GAS

 P, BAR            15.408
 T, K             2910.20
 RHO, KG/CU M    1.7158 0
 H, KJ/KG          316.97
 U, KJ/KG         -581.02
 G, KJ/KG        -28058.6
 S, KJ/(KG)(K)     9.7504

 M, (1/n)          26.946
 (dLV/dLP)t      -1.00801
 (dLV/dLT)p        1.1829
 Cp, KJ/(KG)(K)    2.9103
 GAMMAs            1.1633
 SON VEL,M/SEC     1022.1

 DETONATION PARAMETERS

 P/P1              15.408
 T/T1               9.701
 M/M1              1.1357
 RHO/RHO1          1.8038
 DET MACH NUMBER   4.8060
 DET VEL,M/SEC     1843.6

 MOLE FRACTIONS

 *C              3.499-12
 *CH             1.162-12
 CH2             2.826-12
 CH3             7.234-12
 CH2OH           2.181-12
 CH3O            4.857-13
 CH4             2.450-12
 CH3OH           1.598-13
 *CN             1.0057-9
 CNN             8.037-16
 *CO             1.0888-1
 *CO2            1.0137-1
 COOH            8.1259-7
 C2H             2.361-16
 C2H2,acetylene  8.262-15
 CH2CO,ketene    2.044-13
 O(CH)2O         2.871-15
 HO(CO)2OH       2.740-15
 OCCN            1.979-13
 C2N2            2.382-15
 C2O             1.161-12
 C3O2            2.762-15
 *H              4.9103-3
 HCN             5.7743-8
 HCO             6.9092-7
 HCCO            9.126-14
 HNC             9.3217-9
 HNCO            1.0979-7
 HNO             1.2669-6
 HNO2            1.6630-7
 HNO3            9.221-12
 HO2             4.1324-6
 *H2             2.6220-2
 HCHO,formaldehy 1.8052-8
 HCOOH           1.1037-7
 H2O             1.7604-1
 H2O2            5.8842-7
 *N              1.4638-6
 NCO             1.5751-8
 *NH             5.2899-7
 NH2             2.9126-7
 NH3             3.5888-7
 NH2OH           1.409-10
 *NO             4.4095-3
 NO2             1.3185-6
 NO3             2.183-12
 *N2             5.6277-1
 NCN             8.499-14
 N2H2            4.155-11
 NH2NO2          5.194-16
 N2H4            1.435-15
 N2O             8.2683-7
 N2O3            1.134-13
 N3              1.378-11
 N3H             5.163-12
 *O              1.1761-3
 *OH             1.1067-2
 *O2             3.1408-3
 O3              7.543-10

  * THERMODYNAMIC PROPERTIES FITTED TO 20000.K


                     DETONATION PROPERTIES OF AN IDEAL REACTING GAS
 CASE =                

             REACTANT                       MOLES         ENERGY      TEMP
                                                         KJ/KG-MOL      K
 FUEL        CO                           0.5000000   -110481.283    300.000
 OXIDANT     O2                           1.0000000        54.358    300.000
 OXIDANT     N2                           3.7619000        53.881    300.000
 FUEL        H2                           0.5000000        53.359    300.000

 O/F=    3.05030  %FUEL= 24.689524  R,EQ.RATIO= 1.285714  PHI,EQ.RATIO= 1.500000

 UNBURNED GAS

 P1, BAR           1.0000
 T1, K             300.00
 H1, KJ/KG        -906.61
 M1, (1/n)         23.502
 GAMMA1            1.3998
 SON VEL1,M/SEC     385.4

 BURNED GAS

 P, BAR            15.288
 T, K             2893.42
 RHO, KG/CU M    1.6942 0
 H, KJ/KG          273.26
 U, KJ/KG         -629.10
 G, KJ/KG        -28162.5
 S, KJ/(KG)(K)     9.8277

 M, (1/n)          26.660
 (dLV/dLP)t      -1.00660
 (dLV/dLT)p        1.1510
 Cp, KJ/(KG)(K)    2.7078
 GAMMAs            1.1709
 SON VEL,M/SEC     1027.9

 DETONATION PARAMETERS

 P/P1              15.288
 T/T1               9.645
 M/M1              1.1344
 RHO/RHO1          1.7981
 DET MACH NUMBER   4.7952
 DET VEL,M/SEC     1848.3

 MOLE FRACTIONS

 *C              4.199-12
 *CH             1.592-12
 CH2             4.516-12
 CH3             1.359-11
 CH2OH           3.304-12
 CH3O            7.273-13
 CH4             5.362-12
 CH3OH           2.803-13
 *CN             1.2702-9
 CNN             9.490-16
 *CO             1.2383-1
 *CO2            9.5392-2
 COOH            8.1202-7
 C2H             4.606-16
 C2H2,acetylene  1.937-14
 CH2CO,ketene    3.973-13
 O(CH)2O         4.486-15
 HO(CO)2OH       2.904-15
 CH3CO,acetyl    1.129-16
 OCCN            2.891-13
 C2N2            4.296-15
 C2O             1.692-12
 C3O2            4.827-15
 *H              5.1913-3
 HCN             8.6875-8
 HCO             8.3958-7
 HCCO            1.516-13
 HNC             1.3820-8
 HNCO            1.3600-7
 HNO             1.0499-6
 HNO2            1.1156-7
 HNO3            4.849-12
 HO2             2.7662-6
 *H2             3.2459-2
 HCHO,formaldehy 2.5203-8
 HCOOH           1.2685-7
 H2O             1.7941-1
 H2O2            4.5236-7
 *N              1.2920-6
 NCO             1.6560-8
 *NH             5.3314-7
 NH2             3.3901-7
 NH3             4.9014-7
 NH2OH           1.486-10
 *NO             3.3128-3
 NO2             7.7747-7
 NO3             9.861-13
 *N2             5.4813-1
 NCN             1.036-13
 N2H2            4.708-11
 NH2NO2          3.736-16
 N2H4            2.059-15
 N2O             6.1012-7
 N2O3            5.009-14
 N3              1.185-11
 N3H             5.094-12
 *O              8.6380-4
 *OH             9.5033-3
 *O2             1.9011-3
 O3              3.400-10

  * THERMODYNAMIC PROPERTIES FITTED TO 20000.K


                     DETONATION PROPERTIES OF AN IDEAL REACTING GAS
 CASE =                

             REACTANT                       MOLES         ENERGY      TEMP
                                                         KJ/KG-MOL      K
 FUEL        CO                           0.5000000   -110481.283    300.000
 OXIDANT     O2                           1.0000000        54.358    300.000
 OXIDANT     N2                           3.7619000        53.881    300.000
 FUEL        H2                           0.5000000        53.359    300.000

 O/F=    2.85966  %FUEL= 25.909038  R,EQ.RATIO= 1.333333  PHI,EQ.RATIO= 1.600000

 UNBURNED GAS

 P1, BAR           1.0000
 T1, K             300.00
 H1, KJ/KG        -951.48
 M1, (1/n)         23.289
 GAMMA1            1.3999
 SON VEL1,M/SEC     387.2

 BURNED GAS

 P, BAR            15.136
 T, K             2869.89
 RHO, KG/CU M    1.6732 0
 H, KJ/KG          227.93
 U, KJ/KG         -676.67
 G, KJ/KG        -28186.1
 S, KJ/(KG)(K)     9.9007

 M, (1/n)          26.378
 (dLV/dLP)t      -1.00537
 (dLV/dLT)p        1.1229
 Cp, KJ/(KG)(K)    2.5272
 GAMMAs            1.1791
 SON VEL,M/SEC     1032.8

 DETONATION PARAMETERS

 P/P1              15.136
 T/T1               9.566
 M/M1              1.1327
 RHO/RHO1          1.7921
 DET MACH NUMBER   4.7798
 DET VEL,M/SEC     1850.8

 MOLE FRACTIONS

 *C              4.584-12
 *CH             1.984-12
 CH2             6.630-12
 CH3             2.374-11
 CH2OH           4.688-12
 CH3O            1.015-12
 CH4             1.102-11
 CH3OH           4.635-13
 *CN             1.5001-9
 CNN             1.025-15
 *CO             1.3805-1
 *CO2            8.9563-2
 COOH            7.8564-7
 C2H             8.004-16
 C2H2,acetylene  4.136-14
 CH2CO,ketene    7.165-13
 O(CH)2O         6.540-15
 HO(CO)2OH       2.961-15
 CH3CO,acetyl    2.195-16
 OCCN            3.904-13
 C2N2            7.146-15
 C2O             2.263-12
 C3O2            7.774-15
 *H              5.3096-3
 HCN             1.2451-7
 HCO             9.7301-7
 HCCO            2.311-13
 HNC             1.9398-8
 HNCO            1.6300-7
 HNO             8.4271-7
 HNO2            7.3084-8
 HNO3            2.477-12
 HO2             1.7954-6
 *H2             3.9312-2
 HCHO,formaldehy 3.3666-8
 HCOOH           1.4167-7
 H2O             1.8166-1
 H2O2            3.3820-7
 *N              1.0873-6
 NCO             1.6615-8
 *NH             5.1259-7
 NH2             3.7843-7
 NH3             6.4981-7
 NH2OH           1.505-10
 *NO             2.4441-3
 NO2             4.4815-7
 NO3             4.291-13
 *N2             5.3394-1
 NCN             1.171-13
 N2H2            5.090-11
 NH2NO2          2.572-16
 N2H4            2.787-15
 N2O             4.4155-7
 N2O3            2.125-14
 N3              9.729-12
 N3H             4.810-12
 *O              6.1335-4
 *OH             7.9719-3
 *O2             1.1304-3
 O3              1.465-10

  * THERMODYNAMIC PROPERTIES FITTED TO 20000.K


                     DETONATION PROPERTIES OF AN IDEAL REACTING GAS
 CASE =                

             REACTANT                       MOLES         ENERGY      TEMP
                                                         KJ/KG-MOL      K
 FUEL        CO                           0.5000000   -110481.283    300.000
 OXIDANT     O2                           1.0000000        54.358    300.000
 OXIDANT     N2                           3.7619000        53.881    300.000
 FUEL        H2                           0.5000000        53.359    300.000

 O/F=    2.69144  %FUEL= 27.089685  R,EQ.RATIO= 1.378378  PHI,EQ.RATIO= 1.700000

 UNBURNED GAS

 P1, BAR           1.0000
 T1, K             300.00
 H1, KJ/KG        -994.93
 M1, (1/n)         23.086
 GAMMA1            1.3999
 SON VEL1,M/SEC     388.9

 BURNED GAS

 P, BAR            14.962
 T, K             2841.36
 RHO, KG/CU M    1.6531 0
 H, KJ/KG          181.65
 U, KJ/KG         -723.45
 G, KJ/KG        -28146.1
 S, KJ/(KG)(K)     9.9698

 M, (1/n)          26.102
 (dLV/dLP)t      -1.00435
 (dLV/dLT)p        1.0998
 Cp, KJ/(KG)(K)    2.3779
 GAMMAs            1.1872
 SON VEL,M/SEC     1036.6

 DETONATION PARAMETERS

 P/P1              14.962
 T/T1               9.471
 M/M1              1.1306
 RHO/RHO1          1.7861
 DET MACH NUMBER   4.7605
 DET VEL,M/SEC     1851.5

 MOLE FRACTIONS

 *C              4.633-12
 *CH             2.289-12
 CH2             9.063-12
 CH3             3.898-11
 CH2OH           6.295-12
 CH3O            1.336-12
 CH4             2.140-11
 CH3OH           7.281-13
 *CN             1.6768-9
 CNN             1.030-15
 *CO             1.5143-1
 *CO2            8.4057-2
 COOH            7.4114-7
 C2H             1.262-15
 C2H2,acetylene  8.148-14
 C2H2,vinylidene 1.745-16
 CH2CO,ketene    1.212-12
 O(CH)2O         8.995-15
 HO(CO)2OH       2.931-15
 CH3CO,acetyl    3.947-16
 OCCN            4.942-13
 C2N2            1.111-14
 C2O             2.820-12
 C3O2            1.170-14
 *H              5.2836-3
 HCN             1.7117-7
 HCO             1.0845-6
 HCCO            3.279-13
 HNC             2.5988-8
 HNCO            1.9005-7
 HNO             6.5998-7
 HNO2            4.7109-8
 HNO3            1.242-12
 HO2             1.1399-6
 *H2             4.6679-2
 HCHO,formaldehy 4.3310-8
 HCOOH           1.5454-7
 H2O             1.8288-1
 H2O2            2.4766-7
 *N              8.8123-7
 NCO             1.6060-8
 *NH             4.7429-7
 NH2             4.0780-7
 NH3             8.3864-7
 NH2OH           1.473-10
 *NO             1.7809-3
 NO2             2.5466-7
 NO3             1.822-13
 *N2             5.2022-1
 NCN             1.245-13
 N2H2            5.292-11
 NH2NO2          1.714-16
 N2H4            3.588-15
 N2O             3.1532-7
 N2O3            8.776-15
 N3              7.706-12
 N3H             4.384-12
 *O              4.2475-4
 *OH             6.5686-3
 *O2             6.6499-4
 O3              6.131-11

  * THERMODYNAMIC PROPERTIES FITTED TO 20000.K


                     DETONATION PROPERTIES OF AN IDEAL REACTING GAS
 CASE =                

             REACTANT                       MOLES         ENERGY      TEMP
                                                         KJ/KG-MOL      K
 FUEL        CO                           0.5000000   -110481.283    300.000
 OXIDANT     O2                           1.0000000        54.358    300.000
 OXIDANT     N2                           3.7619000        53.881    300.000
 FUEL        H2                           0.5000000        53.359    300.000

 O/F=    2.54192  %FUEL= 28.233295  R,EQ.RATIO= 1.421053  PHI,EQ.RATIO= 1.800000

 UNBURNED GAS

 P1, BAR           1.0000
 T1, K             300.00
 H1, KJ/KG       -1037.01
 M1, (1/n)         22.893
 GAMMA1            1.4000
 SON VEL1,M/SEC     390.6

 BURNED GAS

 P, BAR            14.775
 T, K             2809.37
 RHO, KG/CU M    1.6340 0
 H, KJ/KG          134.96
 U, KJ/KG         -769.29
 G, KJ/KG        -28057.5
 S, KJ/(KG)(K)    10.0352

 M, (1/n)          25.832
 (dLV/dLP)t      -1.00355
 (dLV/dLT)p        1.0814
 Cp, KJ/(KG)(K)    2.2595
 GAMMAs            1.1948
 SON VEL,M/SEC     1039.4

 DETONATION PARAMETERS

 P/P1              14.775
 T/T1               9.365
 M/M1              1.1284
 RHO/RHO1          1.7803
 DET MACH NUMBER   4.7380
 DET VEL,M/SEC     1850.5

 MOLE FRACTIONS

 *C              4.401-12
 *CH             2.476-12
 CH2             1.166-11
 CH3             6.057-11
 CH2OH           8.062-12
 CH3O            1.673-12
 CH4             3.950-11
 CH3OH           1.093-12
 *CN             1.7917-9
 CNN             9.762-16
 *CO             1.6392-1
 *CO2            7.8975-2
 COOH            6.8579-7
 C2H             1.835-15
 C2H2,acetylene  1.496-13
 C2H2,vinylidene 2.947-16
 CH2CO,ketene    1.938-12
 O(CH)2O         1.179-14
 HO(CO)2OH       2.838-15
 CH3CO,acetyl    6.634-16
 OCCN            5.934-13
 C2N2            1.629-14
 C2O             3.319-12
 C3O2            1.665-14
 *H              5.1412-3
 HCN             2.2698-7
 HCO             1.1706-6
 HCCO            4.381-13
 HNC             3.3457-8
 HNCO            2.1653-7
 HNO             5.0773-7
 HNO2            3.0085-8
 HNO3            6.174-13
 HO2             7.1379-7
 *H2             5.4443-2
 HCHO,formaldehy 5.3946-8
 HCOOH           1.6537-7
 H2O             1.8321-1
 H2O2            1.7879-7
 *N              6.9394-7
 NCO             1.5076-8
 *NH             4.2558-7
 NH2             4.2662-7
 NH3             1.0562-6
 NH2OH           1.402-10
 *NO             1.2881-3
 NO2             1.4377-7
 NO3             7.649-14
 *N2             5.0700-1
 NCN             1.258-13
 N2H2            5.327-11
 NH2NO2          1.116-16
 N2H4            4.422-15
 N2O             2.2341-7
 N2O3            3.576-15
 N3              5.938-12
 N3H             3.886-12
 *O              2.8916-4
 *OH             5.3425-3
 *O2             3.8971-4
 O3              2.525-11

  * THERMODYNAMIC PROPERTIES FITTED TO 20000.K


                     DETONATION PROPERTIES OF AN IDEAL REACTING GAS
 CASE =                

             REACTANT                       MOLES         ENERGY      TEMP
                                                         KJ/KG-MOL      K
 FUEL        CO                           0.5000000   -110481.283    300.000
 OXIDANT     O2                           1.0000000        54.358    300.000
 OXIDANT     N2                           3.7619000        53.881    300.000
 FUEL        H2                           0.5000000        53.359    300.000

 O/F=    2.40813  %FUEL= 29.341584  R,EQ.RATIO= 1.461538  PHI,EQ.RATIO= 1.900000

 UNBURNED GAS

 P1, BAR           1.0000
 T1, K             300.00
 H1, KJ/KG       -1077.79
 M1, (1/n)         22.709
 GAMMA1            1.4000
 SON VEL1,M/SEC     392.1

 BURNED GAS

 P, BAR            14.583
 T, K             2775.26
 RHO, KG/CU M    1.6160 0
 H, KJ/KG          88.453
 U, KJ/KG         -813.94
 G, KJ/KG        -27933.8
 S, KJ/(KG)(K)    10.0972

 M, (1/n)          25.571
 (dLV/dLP)t      -1.00293
 (dLV/dLT)p        1.0671
 Cp, KJ/(KG)(K)    2.1677
 GAMMAs            1.2018
 SON VEL,M/SEC     1041.4

 DETONATION PARAMETERS

 P/P1              14.583
 T/T1               9.251
 M/M1              1.1260
 RHO/RHO1          1.7751
 DET MACH NUMBER   4.7138
 DET VEL,M/SEC     1848.5

 MOLE FRACTIONS

 *C              3.981-12
 *CH             2.544-12
 CH2             1.427-11
 CH3             8.972-11
 CH2OH           9.923-12
 CH3O            2.008-12
 CH4             6.956-11
 CH3OH           1.577-12
 *CN             1.8462-9
 CNN             8.841-16
 *CO             1.7552-1
 *CO2            7.4358-2
 COOH            6.2571-7
 C2H             2.493-15
 C2H2,acetylene  2.585-13
 C2H2,vinylidene 4.646-16
 CH2CO,ketene    2.956-12
 O(CH)2O         1.484-14
 HO(CO)2OH       2.704-15
 CH3CN           1.213-16
 CH3CO,acetyl    1.052-15
 OCCN            6.825-13
 C2N2            2.277-14
 C2O             3.727-12
 C3O2            2.262-14
 *H              4.9137-3
 HCN             2.9174-7
 HCO             1.2311-6
 HCCO            5.571-13
 HNC             4.1636-8
 HNCO            2.4201-7
 HNO             3.8604-7
 HNO2            1.9155-8
 HNO3            3.069-13
 HO2             4.4403-7
 *H2             6.2484-2
 HCHO,formaldehy 6.5373-8
 HCOOH           1.7425-7
 H2O             1.8278-1
 H2O2            1.2800-7
 *N              5.3514-7
 NCO             1.3841-8
 *NH             3.7292-7
 NH2             4.3556-7
 NH3             1.3011-6
 NH2OH           1.307-10
 *NO             9.2903-4
 NO2             8.1198-8
 NO3             3.208-14
 *N2             4.9428-1
 NCN             1.222-13
 N2H2            5.226-11
 N2H4            5.251-15
 N2O             1.5783-7
 N2O3            1.455-15
 N3              4.488-12
 N3H             3.371-12
 *O              1.9488-4
 *OH             4.3084-3
 *O2             2.2886-4
 O3              1.036-11

  * THERMODYNAMIC PROPERTIES FITTED TO 20000.K


                     DETONATION PROPERTIES OF AN IDEAL REACTING GAS
 CASE =                

             REACTANT                       MOLES         ENERGY      TEMP
                                                         KJ/KG-MOL      K
 FUEL        CO                           0.5000000   -110481.283    300.000
 OXIDANT     O2                           1.0000000        54.358    300.000
 OXIDANT     N2                           3.7619000        53.881    300.000
 FUEL        H2                           0.5000000        53.359    300.000

 O/F=    2.28773  %FUEL= 30.416163  R,EQ.RATIO= 1.500000  PHI,EQ.RATIO= 2.000000

 UNBURNED GAS

 P1, BAR           1.0000
 T1, K             300.00
 H1, KJ/KG       -1117.33
 M1, (1/n)         22.533
 GAMMA1            1.4001
 SON VEL1,M/SEC     393.7

 BURNED GAS

 P, BAR            14.390
 T, K             2739.95
 RHO, KG/CU M    1.5992 0
 H, KJ/KG          42.413
 U, KJ/KG         -857.38
 G, KJ/KG        -27784.9
 S, KJ/(KG)(K)    10.1562

 M, (1/n)          25.318
 (dLV/dLP)t      -1.00244
 (dLV/dLT)p        1.0559
 Cp, KJ/(KG)(K)    2.0968
 GAMMAs            1.2080
 SON VEL,M/SEC     1042.6

 DETONATION PARAMETERS

 P/P1              14.390
 T/T1               9.133
 M/M1              1.1236
 RHO/RHO1          1.7703
 DET MACH NUMBER   4.6882
 DET VEL,M/SEC     1845.7

 MOLE FRACTIONS

 *C              3.464-12
 *CH             2.506-12
 CH2             1.673-11
 CH3             1.274-10
 CH2OH           1.181-11
 CH3O            2.328-12
 CH4             1.175-10
 CH3OH           2.196-12
 *CN             1.8472-9
 CNN             7.723-16
 *CO             1.8626-1
 *CO2            7.0210-2
 COOH            5.6510-7
 C2H             3.199-15
 C2H2,acetylene  4.235-13
 C2H2,vinylidene 6.905-16
 CH2CO,ketene    4.326-12
 O(CH)2O         1.806-14
 HO(CO)2OH       2.548-15
 CH3CN           2.256-16
 CH3CO,acetyl    1.587-15
 C2H4            1.468-16
 OCCN            7.578-13
 C2N2            3.052-14
 C2O             4.031-12
 C3O2            2.955-14
 *H              4.6292-3
 HCN             3.6497-7
 HCO             1.2678-6
 HCCO            6.797-13
 HNC             5.0330-8
 HNCO            2.6617-7
 HNO             2.9136-7
 HNO2            1.2210-8
 HNO3            1.534-13
 HO2             2.7579-7
 *H2             7.0691-2
 HCHO,formaldehy 7.7381-8
 HCOOH           1.8134-7
 H2O             1.8173-1
 H2O2            9.1273-8
 *N              4.0649-7
 NCO             1.2494-8
 *NH             3.2080-7
 NH2             4.3581-7
 NH3             1.5713-6
 NH2OH           1.197-10
 *NO             6.7023-4
 NO2             4.6085-8
 NO3             1.354-14
 *N2             4.8208-1
 NCN             1.150-13
 N2H2            5.018-11
 N2H4            6.042-15
 N2O             1.1154-7
 N2O3            5.951-16
 N3              3.345-12
 N3H             2.877-12
 *O              1.3067-4
 *OH             3.4561-3
 *O2             1.3521-4
 O3              4.265-12

  * THERMODYNAMIC PROPERTIES FITTED TO 20000.K



