

         NASA-GLENN CHEMICAL EQUILIBRIUM PROGRAM CEA2, FEBRUARY 5, 2004
                   BY  BONNIE MCBRIDE AND SANFORD GORDON
      REFS: NASA RP-1311, PART I, 1994 AND NASA RP-1311, PART II, 1996

 *******************************************************************************

  
 ### CEA analysis performed on Sun 28-Aug-2022 12:01:27
  
 # Problem Type: "Rocket" (Finite Area Combustor)
  
 prob case=test___________9888 ro equilibrium    fac
  
 !Contraction Ratio:
 ac/at=2
  
 # Pressure (1 value):
 p,atm= 100
 # Supersonic Area Ratio (1 value):
 supar= 3
  
 # Equivalence based on Fuel/Oxid. wt ratio (Eq 9.19*) (10 values):
 phi= 3.1, 3.2, 3.3, 3.4, 3.5, 3.6, 3.7, 3.8, 3.9, 4
  
 # You selected the following fuels and oxidizers:
 reac
 fuel CH4(L)            wt%=100.0000
 oxid O2(L)             wt%=100.0000
  
 # You selected these options for output:
 # short version of output
 output short
 # Proportions of any products will be expressed as Mole Fractions.
 # Heat will be expressed as siunits
 output siunits
 # Trace variable:
 output trace=1e-16
  
 # Input prepared by this script:/var/www/sites/cearun.grc.nasa.gov/cgi-bin/CEARU
 N/prepareInputFile.cgi
  
 ### IMPORTANT:  The following line is the end of your CEA input file!
 end

              THEORETICAL ROCKET PERFORMANCE ASSUMING EQUILIBRIUM

            COMPOSITION DURING EXPANSION FROM FINITE AREA COMBUSTOR

 Pin =  1469.6 PSIA
 Ac/At =  2.0000      Pinj/Pinf =  1.054098
 CASE = test___________

             REACTANT                    WT FRACTION      ENERGY      TEMP
                                          (SEE NOTE)     KJ/KG-MOL      K  
 FUEL        CH4(L)                       1.0000000    -89233.000    111.643
 OXIDANT     O2(L)                        1.0000000    -12979.000     90.170

 O/F=    1.28686  %FUEL= 43.728097  R,EQ.RATIO= 3.100000  PHI,EQ.RATIO= 3.100000

                 INJECTOR  COMB END  THROAT     EXIT
 Pinj/P            1.0000   1.1176   1.8671   15.275
 P, BAR            101.33   90.664   54.270   6.6332
 T, K             1440.53  1423.54  1326.24  1048.74
 RHO, KG/CU M    1.1109 1 1.0063 1 6.5821 0 1.0989 0
 H, KJ/KG        -2660.53 -2713.51 -3155.77 -4634.68
 U, KJ/KG        -3572.61 -3614.50 -3980.27 -5238.29
 G, KJ/KG        -22855.3 -22717.7 -21792.6 -19372.1
 S, KJ/(KG)(K)    14.0191  14.0524  14.0524  14.0524

 M, (1/n)          13.132   13.137   13.374   14.446
 MW, MOL WT        13.132   13.137   13.374   14.379
 (dLV/dLP)t      -1.08016 -1.08042 -1.09080 -1.11954
 (dLV/dLT)p        1.7767   1.7893   1.9626   2.7020
 Cp, KJ/(KG)(K)    7.6959   7.8313   9.2681  17.6202
 GAMMAs            1.2188   1.2170   1.2013   1.1350
 SON VEL,M/SEC     1054.4   1047.2    995.2    827.7
 MACH NUMBER        0.000    0.311    1.000    2.401

 PERFORMANCE PARAMETERS

 Ae/At                      2.0000   1.0000   3.0000
 CSTAR, M/SEC               1467.4   1467.4   1467.4
 CF                         0.2218   0.6782   1.3541
 Ivac, M/SEC                3093.6   1823.7   2290.8
 Isp, M/SEC                  325.5    995.2   1987.0

 MOLE FRACTIONS

 CH2             8.846-13 6.195-13 7.057-14 1.317-17
 CH3             8.6157-7 7.3073-7 2.9597-7 7.0913-9
 CH2OH           2.218-10 1.720-10 4.379-11 1.702-13
 CH3O            8.731-12 6.530-12 1.327-12 2.235-15
 CH4             3.6883-2 3.7080-2 4.6800-2 8.7910-2
 CH3OH           5.1378-7 4.5589-7 2.8928-7 3.6629-8
 *CO             2.9396-1 2.9324-1 2.8315-1 2.2535-1
 *CO2            2.7057-2 2.7712-2 3.4571-2 7.4063-2
 COOH            1.372 -9 1.113 -9 3.530-10 3.557-12
 C2H             4.645-16 2.946-16 1.804-17 2.783-22
 C2H2,acetylene  3.1665-7 2.6693-7 1.0349-7 1.9132-9
 C2H2,vinylidene 4.311-13 3.032-13 3.802-14 8.701-18
 CH2CO,ketene    8.6187-7 7.4553-7 3.7142-7 1.7721-8
 O(CH)2O         6.956-12 5.467-12 1.646-12 1.122-14
 HO(CO)2OH       1.072-14 8.498-15 3.233-15 5.330-17
 C2H3,vinyl      3.943-11 2.954-11 5.923-12 7.966-15
 CH3CO,acetyl    4.721-10 3.722-10 1.127-10 7.518-13
 C2H4            9.0694-6 8.2482-6 5.9800-6 1.1142-6
 C2H4O,ethylen-o 6.116-13 4.788-13 1.498-13 1.077-15
 CH3CHO,ethanal  1.1837-7 1.0387-7 6.6029-8 7.2862-9
 CH3COOH         5.181 -9 4.568 -9 3.285 -9 5.985-10
 OHCH2COOH       2.656-13 2.088-13 8.063-14 1.329-15
 C2H5            1.852 -9 1.496 -9 5.615-10 7.728-12
 C2H6            6.8114-6 6.3937-6 6.5871-6 4.3133-6
 C2H5OH          9.021-10 7.621-10 4.464-10 3.246-11
 CH3OCH3         2.209-12 1.777-12 7.682-13 1.719-14
 C2O             1.695-14 1.159-14 1.144-15 1.156-19
 C3H3,1-propynl  1.899-16 1.259-16 1.266-17 1.001-21
 C3H3,2-propynl  1.311-11 9.705-12 1.941-12 2.234-15
 C3H4,allene     4.868-10 3.943-10 1.493-10 1.940-12
 C3H4,propyne    1.415 -9 1.154 -9 4.554-10 6.932-12
 C3H4,cyclo-     2.887-13 2.148-13 4.798-14 8.100-17
 C3H5,allyl      5.959-11 4.693-11 1.615-11 1.394-13
 C3H6,propylene  2.4392-8 2.1149-8 1.4273-8 1.5624-9
 C3H6,cyclo-     3.819-11 3.200-11 1.747-11 8.535-13
 C3H6O,propylox  1.476-15 1.109-15 3.372-16 1.686-18
 C3H6O,acetone   1.924-10 1.642-10 1.099-10 1.143-11
 C3H6O,propanal  5.295-11 4.355-11 2.320-11 1.010-12
 C3H7,n-propyl   9.458-13 7.173-13 2.272-13 1.262-15
 C3H7,i-propyl   1.024-12 7.859-13 2.678-13 1.953-15
 C3H8            3.705 -9 3.272 -9 2.889 -9 8.124-10
 C3H8O,1propanol 4.534-13 3.611-13 1.834-13 5.948-15
 C3H8O,2propanol 5.680-13 4.582-13 2.524-13 1.133-14
 C3O2            4.645-11 3.701-11 1.114-11 7.168-14
 C4H2,butadiyne  7.160-14 5.075-14 7.699-15 2.777-18
 C4H6,butadiene  2.728-11 2.197-11 1.008-11 2.183-13
 C4H6,1butyne    8.258-13 6.331-13 2.133-13 1.370-15
 C4H6,2butyne    1.126-12 8.844-13 3.454-13 3.889-15
 C4H6,cyclo-     2.497-14 1.935-14 6.982-15 5.917-17
 C4H8,1-butene   1.238-11 1.010-11 5.858-12 2.770-13
 C4H8,cis2-buten 6.363-12 5.249-12 3.253-12 1.975-13
 C4H8,tr2-butene 7.160-12 5.908-12 3.671-12 2.266-13
 C4H8,isobutene  8.893-12 7.379-12 4.744-12 3.341-13
 C4H8,cyclo-     3.272-15 2.599-15 1.275-15 3.206-17
 C4H9,n-butyl    1.441-15 1.041-15 3.044-16 9.709-19
 C4H9,i-butyl    9.531-16 6.940-16 2.141-16 8.419-19
 C4H9,s-butyl    9.784-16 7.073-16 2.083-16 6.740-19
 C4H9,t-butyl    3.855-16 2.860-16 9.889-17 5.888-19
 C4H10,n-butane  2.033-12 1.688-12 1.270-12 1.503-13
 C4H10,isobutane 7.878-13 6.594-13 5.230-13 7.613-14
 C5H6,1,3cyclo-  1.637-13 1.329-13 6.850-14 1.991-15
 C5H8,cyclo-     1.172-14 9.483-15 5.604-15 2.497-16
 C5H10,1-pentene 5.359-15 4.120-15 2.061-15 4.237-17
 C5H10,cyclo-    2.693-16 2.196-16 1.593-16 1.420-17
 C5H12,n-pentane 9.504-16 7.413-16 4.753-16 2.385-17
 C5H12,i-pentane 9.477-16 7.413-16 4.852-16 2.731-17
 C6H6            9.874-13 8.673-13 7.843-13 1.713-13
 C6H5OH,phenol   1.177-15 9.538-16 5.725-16 2.537-17
 C7H8            3.897-15 3.267-15 2.767-15 3.630-16
 *H              6.0480-7 5.1135-7 1.6288-7 2.1036-9
 HCO             3.644 -8 2.961 -8 8.616 -9 6.267-11
 HCCO            2.135-12 1.551-12 2.420-13 1.360-16
 *H2             5.2829-1 5.2859-1 5.1737-1 4.7579-1
 HCHO,formaldehy 7.1479-6 6.4160-6 3.7494-6 3.8544-7
 HCOOH           1.8148-6 1.6412-6 1.1040-6 2.0083-7
 H2O             1.1378-1 1.1335-1 1.1809-1 1.3227-1
 H2O2            2.962-15 2.057-15 2.484-16 6.611-20
 (HCOOH)2        2.686-16 2.084-16 8.130-17 1.382-18
 *O              3.068-15 2.066-15 1.620-16 9.409-21
 *OH             3.580 -9 2.836 -9 6.572-10 2.345-12
 *O2             3.119-16 2.100-16 1.797-17 1.413-21
 C(gr)           0.0000 0 0.0000 0 0.0000 0 4.6163-3

  * THERMODYNAMIC PROPERTIES FITTED TO 20000.K

 NOTE. WEIGHT FRACTION OF FUEL IN TOTAL FUELS AND OF OXIDANT IN TOTAL OXIDANTS

              THEORETICAL ROCKET PERFORMANCE ASSUMING EQUILIBRIUM

            COMPOSITION DURING EXPANSION FROM FINITE AREA COMBUSTOR

 Pin =  1469.6 PSIA
 Ac/At =  2.0000      Pinj/Pinf =  1.053895
 CASE = test___________

             REACTANT                    WT FRACTION      ENERGY      TEMP
                                          (SEE NOTE)     KJ/KG-MOL      K  
 FUEL        CH4(L)                       1.0000000    -89233.000    111.643
 OXIDANT     O2(L)                        1.0000000    -12979.000     90.170

 O/F=    1.24664  %FUEL= 44.510818  R,EQ.RATIO= 3.200000  PHI,EQ.RATIO= 3.200000

                 INJECTOR  COMB END  THROAT     EXIT
 Pinj/P            1.0000   1.1171   1.8632   15.110
 P, BAR            101.33   90.701   54.383   6.7060
 T, K             1417.35  1401.02  1309.15  1044.21
 RHO, KG/CU M    1.1331 1 1.0265 1 6.7088 0 1.1182 0
 H, KJ/KG        -2700.90 -2752.64 -3185.51 -4639.25
 U, KJ/KG        -3595.13 -3636.24 -3996.13 -5238.98
 G, KJ/KG        -22544.3 -22413.9 -21557.5 -19293.1
 S, KJ/(KG)(K)    14.0004  14.0335  14.0335  14.0335

 M, (1/n)          13.178   13.183   13.428   14.476
 MW, MOL WT        13.178   13.183   13.428   14.225
 (dLV/dLP)t      -1.09147 -1.09169 -1.10002 -1.11979
 (dLV/dLT)p        1.9020   1.9156   2.0752   2.6997
 Cp, KJ/(KG)(K)    8.5758   8.7275  10.1143  17.5635
 GAMMAs            1.2116   1.2099   1.1956   1.1345
 SON VEL,M/SEC     1040.9   1034.0    984.5    824.9
 MACH NUMBER        0.000    0.311    1.000    2.387

 PERFORMANCE PARAMETERS

 Ae/At                      2.0000   1.0000   3.0000
 CSTAR, M/SEC               1455.7   1455.7   1455.7
 CF                         0.2210   0.6763   1.3526
 Ivac, M/SEC                3068.3   1807.9   2273.5
 Isp, M/SEC                  321.7    984.5   1968.9

 MOLE FRACTIONS

 CH2             6.151-13 4.317-13 5.111-14 1.074-17
 CH3             8.3534-7 7.0883-7 2.8588-7 6.5859-9
 CH2OH           1.909-10 1.483-10 3.829-11 1.564-13
 CH3O            7.148-12 5.355-12 1.112-12 2.020-15
 CH4             4.8418-2 4.8632-2 5.8810-2 9.2017-2
 CH3OH           5.7017-7 5.0593-7 3.1524-7 3.7251-8
 *CO             2.8946-1 2.8872-1 2.7840-1 2.1213-1
 *CO2            2.7711-2 2.8377-2 3.5317-2 7.3161-2
 COOH            1.096 -9 8.905-10 2.906-10 3.235-12
 C2H             3.016-16 1.919-16 1.227-17 2.062-22
 C2H2,acetylene  3.2560-7 2.7457-7 1.0480-7 1.6912-9
 C2H2,vinylidene 3.458-13 2.436-13 3.102-14 7.019-18
 CH2CO,ketene    9.2100-7 7.9681-7 3.9028-7 1.6418-8
 O(CH)2O         6.540-12 5.145-12 1.554-12 1.026-14
 HO(CO)2OH       1.026-14 8.141-15 3.124-15 5.247-17
 C2H3,vinyl      3.699-11 2.773-11 5.535-12 6.862-15
 CH3CO,acetyl    4.766-10 3.761-10 1.128-10 6.883-13
 C2H4            1.1903-5 1.0818-5 7.4782-6 1.0946-6
 C2H4O,ethylen-o 6.557-13 5.136-13 1.579-13 1.017-15
 CH3CHO,ethanal  1.4838-7 1.3017-7 7.9654-8 7.2775-9
 CH3COOH         6.559 -9 5.782 -9 4.016 -9 6.211-10
 OHCH2COOH       2.882-13 2.268-13 8.660-14 1.349-15
 C2H5            2.217 -9 1.791 -9 6.481-10 7.402-12
 C2H6            1.0738-5 1.0067-5 9.6537-6 4.6082-6
 C2H5OH          1.235 -9 1.043 -9 5.811-10 3.406-11
 CH3OCH3         2.828-12 2.275-12 9.435-13 1.760-14
 C2O             1.141-14 7.815-15 8.051-16 8.894-20
 C3H3,1-propynl  1.728-16 1.147-16 1.147-17 8.007-22
 C3H3,2-propynl  1.388-11 1.028-11 2.006-12 1.889-15
 C3H4,allene     6.253-10 5.063-10 1.825-10 1.776-12
 C3H4,propyne    1.834 -9 1.495 -9 5.611-10 6.367-12
 C3H4,cyclo-     3.301-13 2.457-13 5.303-14 7.108-17
 C3H5,allyl      7.900-11 6.222-11 2.029-11 1.302-13
 C3H6,propylene  3.9561-8 3.4263-8 2.1349-8 1.5840-9
 C3H6,cyclo-     5.910-11 4.948-11 2.510-11 8.511-13
 C3H6O,propylox  1.975-15 1.484-15 4.286-16 1.648-18
 C3H6O,acetone   3.064-10 2.612-10 1.624-10 1.190-11
 C3H6O,propanal  8.015-11 6.588-11 3.282-11 1.033-12
 C3H7,n-propyl   1.369-12 1.038-12 3.079-13 1.238-15
 C3H7,i-propyl   1.507-12 1.156-12 3.679-13 1.926-15
 C3H8            7.088 -9 6.249 -9 4.986 -9 8.899-10
 C3H8O,1propanol 7.552-13 6.009-13 2.818-13 6.403-15
 C3H8O,2propanol 9.629-13 7.760-13 3.938-13 1.228-14
 C3O2            4.436-11 3.537-11 1.062-11 6.087-14
 C4H2,butadiyne  7.636-14 5.417-14 7.981-15 2.194-18
 C4H6,butadiene  4.587-11 3.691-11 1.550-11 2.108-13
 C4H6,1butyne    1.298-12 9.945-13 3.093-13 1.290-15
 C4H6,2butyne    1.829-12 1.435-12 5.149-13 3.703-15
 C4H6,cyclo-     3.983-14 3.085-14 1.026-14 5.604-17
 C4H8,1-butene   2.438-11 1.987-11 1.032-11 2.880-13
 C4H8,cis2-buten 1.272-11 1.047-11 5.806-12 2.064-13
 C4H8,tr2-butene 1.432-11 1.180-11 6.554-12 2.368-13
 C4H8,isobutene  1.792-11 1.484-11 8.525-12 3.503-13
 C4H8,cyclo-     6.209-15 4.925-15 2.176-15 3.290-17
 C4H9,n-butyl    2.574-15 1.857-15 4.928-16 9.824-19
 C4H9,i-butyl    1.722-15 1.253-15 3.502-16 8.556-19
 C4H9,s-butyl    1.750-15 1.264-15 3.376-16 6.821-19
 C4H9,t-butyl    7.145-16 5.295-16 1.652-16 6.033-19
 C4H10,n-butane  4.714-12 3.905-12 2.578-12 1.687-13
 C4H10,isobutane 1.848-12 1.544-12 1.073-12 8.585-14
 C5H6,1,3cyclo-  3.191-13 2.586-13 1.192-13 1.905-15
 C5H8,cyclo-     2.616-14 2.113-14 1.097-14 2.553-16
 C5H10,1-pentene 1.283-14 9.844-15 4.282-15 4.517-17
 C5H10,cyclo-    6.992-16 5.690-16 3.553-16 1.562-17
 C5H12,n-pentane 2.670-15 2.078-15 1.135-15 2.746-17
 C5H12,i-pentane 2.673-15 2.086-15 1.164-15 3.152-17
 CH3C(CH3)2CH3   1.584-16 1.241-16 7.105-17 2.286-18
 C6H6            2.460-12 2.155-12 1.681-12 1.683-13
 C6H5OH,phenol   2.634-15 2.130-15 1.123-15 2.479-17
 C7H8            1.201-14 1.004-14 7.104-15 3.682-16
 *H              4.4258-7 3.7480-7 1.2402-7 1.8499-9
 HCO             2.905 -8 2.364 -8 7.052 -9 5.508-11
 HCCO            1.675-12 1.219-12 1.946-13 1.116-16
 *H2             5.2222-1 5.2250-1 5.1079-1 4.7042-1
 HCHO,formaldehy 7.0058-6 6.2905-6 3.6705-6 3.6842-7
 HCOOH           1.8029-6 1.6313-6 1.0989-6 1.9977-7
 H2O             1.1216-1 1.1174-1 1.1667-1 1.3490-1
 H2O2            1.786-15 1.244-15 1.609-16 5.829-20
 (HCOOH)2        2.871-16 2.230-16 8.656-17 1.443-18
 *O              1.538-15 1.039-15 8.916-17 7.384-21
 *OH             2.403 -9 1.907 -9 4.655-10 2.063-12
 *O2             1.567-16 1.059-16 9.947-18 1.147-21
 C(gr)           0.0000 0 0.0000 0 0.0000 0 1.7363-2

  * THERMODYNAMIC PROPERTIES FITTED TO 20000.K

 NOTE. WEIGHT FRACTION OF FUEL IN TOTAL FUELS AND OF OXIDANT IN TOTAL OXIDANTS

              THEORETICAL ROCKET PERFORMANCE ASSUMING EQUILIBRIUM

            COMPOSITION DURING EXPANSION FROM FINITE AREA COMBUSTOR

 Pin =  1469.6 PSIA
 Ac/At =  2.0000      Pinj/Pinf =  1.053732
 CASE = test___________

             REACTANT                    WT FRACTION      ENERGY      TEMP
                                          (SEE NOTE)     KJ/KG-MOL      K  
 FUEL        CH4(L)                       1.0000000    -89233.000    111.643
 OXIDANT     O2(L)                        1.0000000    -12979.000     90.170

 O/F=    1.20887  %FUEL= 45.272064  R,EQ.RATIO= 3.300000  PHI,EQ.RATIO= 3.300000

                 INJECTOR  COMB END  THROAT     EXIT
 Pinj/P            1.0000   1.1168   1.8600   14.973
 P, BAR            101.33   90.731   54.476   6.7674
 T, K             1398.02  1382.24  1294.49  1039.52
 RHO, KG/CU M    1.1538 1 1.0454 1 6.8274 0 1.1362 0
 H, KJ/KG        -2740.15 -2790.82 -3215.32 -4646.64
 U, KJ/KG        -3618.34 -3658.77 -4013.22 -5242.28
 G, KJ/KG        -22284.1 -22159.6 -21354.4 -19213.0
 S, KJ/(KG)(K)    13.9797  14.0126  14.0126  14.0126

 M, (1/n)          13.236   13.241   13.489   14.511
 MW, MOL WT        13.236   13.241   13.489   14.085
 (dLV/dLP)t      -1.10008 -1.10027 -1.10698 -1.11991
 (dLV/dLT)p        2.0017   2.0160   2.1641   2.6958
 Cp, KJ/(KG)(K)    9.2944   9.4579  10.7965  17.4894
 GAMMAs            1.2059   1.2042   1.1910   1.1340
 SON VEL,M/SEC     1029.1   1022.3    974.8    821.9
 MACH NUMBER        0.000    0.311    1.000    2.376

 PERFORMANCE PARAMETERS

 Ae/At                      2.0000   1.0000   3.0000
 CSTAR, M/SEC               1444.8   1444.8   1444.8
 CF                         0.2203   0.6747   1.3516
 Ivac, M/SEC                3044.8   1793.3   2257.7
 Isp, M/SEC                  318.3    974.9   1952.7

 MOLE FRACTIONS

 CH2             4.446-13 3.126-13 3.809-14 8.690-18
 CH3             8.0211-7 6.8097-7 2.7408-7 6.0885-9
 CH2OH           1.665-10 1.295-10 3.379-11 1.428-13
 CH3O            5.974-12 4.482-12 9.459-13 1.812-15
 CH4             6.0228-2 6.0450-2 7.0952-2 9.6205-2
 CH3OH           6.1783-7 5.4820-7 3.3718-7 3.7748-8
 *CO             2.8483-1 2.8409-1 2.7359-1 1.9962-1
 *CO2            2.8389-2 2.9065-2 3.6073-2 7.2305-2
 COOH            9.050-10 7.365-10 2.451-10 2.929-12
 C2H             2.041-16 1.301-16 8.601-18 1.512-22
 C2H2,acetylene  3.2641-7 2.7537-7 1.0410-7 1.4874-9
 C2H2,vinylidene 2.801-13 1.976-13 2.549-14 5.611-18
 CH2CO,ketene    9.6046-7 8.3111-7 4.0245-7 1.5147-8
 O(CH)2O         6.149-12 4.842-12 1.466-12 9.334-15
 HO(CO)2OH       9.922-15 7.879-15 3.038-15 5.138-17
 C2H3,vinyl      3.420-11 2.567-11 5.116-12 5.865-15
 CH3CO,acetyl    4.726-10 3.732-10 1.112-10 6.262-13
 C2H4            1.4668-5 1.3325-5 8.9167-6 1.0712-6
 C2H4O,ethylen-o 6.836-13 5.358-13 1.627-13 9.534-16
 CH3CHO,ethanal  1.7693-7 1.5517-7 9.2475-8 7.2373-9
 CH3COOH         7.939 -9 6.997 -9 4.741 -9 6.422-10
 OHCH2COOH       3.076-13 2.422-13 9.170-14 1.361-15
 C2H5            2.520 -9 2.037 -9 7.193-10 7.044-12
 C2H6            1.5442-5 1.4461-5 1.3196-5 4.9058-6
 C2H5OH          1.583 -9 1.336 -9 7.191-10 3.554-11
 CH3OCH3         3.423-12 2.753-12 1.110-12 1.789-14
 C2O             8.019-15 5.506-15 5.855-16 6.783-20
 C3H3,1-propynl  1.543-16 1.025-16 1.024-17 6.334-22
 C3H3,2-propynl  1.411-11 1.046-11 2.010-12 1.584-15
 C3H4,allene     7.495-10 6.070-10 2.116-10 1.615-12
 C3H4,propyne    2.216 -9 1.807 -9 6.555-10 5.809-12
 C3H4,cyclo-     3.581-13 2.667-13 5.630-14 6.184-17
 C3H5,allyl      9.717-11 7.653-11 2.409-11 1.208-13
 C3H6,propylene  5.7770-8 4.9993-8 2.9492-8 1.5966-9
 C3H6,cyclo-     8.290-11 6.936-11 3.346-11 8.432-13
 C3H6O,propylox  2.459-15 1.849-15 5.156-16 1.598-18
 C3H6O,acetone   4.431-10 3.775-10 2.229-10 1.231-11
 C3H6O,propanal  1.110-10 9.121-11 4.337-11 1.049-12
 C3H7,n-propyl   1.811-12 1.373-12 3.894-13 1.203-15
 C3H7,i-propyl   2.021-12 1.550-12 4.710-13 1.883-15
 C3H8            1.189 -8 1.047 -8 7.789 -9 9.692-10
 C3H8O,1propanol 1.132-12 9.001-13 3.992-13 6.839-15
 C3H8O,2propanol 1.465-12 1.180-12 5.656-13 1.321-14
 C3O2            4.203-11 3.354-11 1.006-11 5.139-14
 C4H2,butadiyne  7.758-14 5.508-14 7.972-15 1.716-18
 C4H6,butadiene  6.848-11 5.507-11 2.178-11 2.020-13
 C4H6,1butyne    1.828-12 1.400-12 4.125-13 1.203-15
 C4H6,2butyne    2.649-12 2.077-12 7.040-13 3.497-15
 C4H6,cyclo-     5.683-14 4.400-14 1.384-14 5.261-17
 C4H8,1-butene   4.156-11 3.382-11 1.630-11 2.971-13
 C4H8,cis2-buten 2.195-11 1.806-11 9.269-12 2.140-13
 C4H8,tr2-butene 2.472-11 2.034-11 1.047-11 2.457-13
 C4H8,isobutene  3.114-11 2.576-11 1.370-11 3.644-13
 C4H8,cyclo-     1.025-14 8.125-15 3.343-15 3.347-17
 C4H9,n-butyl    4.027-15 2.905-15 7.213-16 9.835-19
 C4H9,i-butyl    2.722-15 1.979-15 5.171-16 8.605-19
 C4H9,s-butyl    2.742-15 1.980-15 4.946-16 6.829-19
 C4H9,t-butyl    1.154-15 8.547-16 2.486-16 6.119-19
 C4H10,n-butane  9.215-12 7.622-12 4.597-12 1.879-13
 C4H10,isobutane 3.648-12 3.043-12 1.930-12 9.607-14
 C5H6,1,3cyclo-  5.358-13 4.337-13 1.853-13 1.808-15
 C5H8,cyclo-     4.922-14 3.971-14 1.886-14 2.589-16
 C5H10,1-pentene 2.554-14 1.957-14 7.733-15 4.767-17
 C5H10,cyclo-    1.493-15 1.213-15 6.833-16 1.702-17
 C5H12,n-pentane 6.081-15 4.725-15 2.311-15 3.129-17
 C5H12,i-pentane 6.110-15 4.762-15 2.379-15 3.602-17
 CH3C(CH3)2CH3   3.635-16 2.843-16 1.460-16 2.624-18
 C6H6            5.053-12 4.419-12 3.116-12 1.642-13
 C6H5OH,phenol   4.967-15 4.013-15 1.934-15 2.402-17
 C7H8            2.929-14 2.442-14 1.527-14 3.702-16
 *H              3.3791-7 2.8657-7 9.7482-8 1.6210-9
 HCO             2.381 -8 1.939 -8 5.891 -9 4.817-11
 HCCO            1.342-12 9.785-13 1.589-13 9.093-17
 *H2             5.1537-1 5.1565-1 5.0369-1 4.6497-1
 HCHO,formaldehy 6.8447-6 6.1476-6 3.5832-6 3.5111-7
 HCOOH           1.7938-6 1.6237-6 1.0940-6 1.9822-7
 H2O             1.1113-1 1.1070-1 1.1567-1 1.3756-1
 H2O2            1.167-15 8.148-16 1.106-16 5.100-20
 (HCOOH)2        3.045-16 2.367-16 9.141-17 1.498-18
 *O              8.548-16 5.796-16 5.302-17 5.748-21
 *OH             1.714 -9 1.363 -9 3.451-10 1.805-12
 C(gr)           0.0000 0 0.0000 0 0.0000 0 2.9335-2

  * THERMODYNAMIC PROPERTIES FITTED TO 20000.K

 NOTE. WEIGHT FRACTION OF FUEL IN TOTAL FUELS AND OF OXIDANT IN TOTAL OXIDANTS

              THEORETICAL ROCKET PERFORMANCE ASSUMING EQUILIBRIUM

            COMPOSITION DURING EXPANSION FROM FINITE AREA COMBUSTOR

 Pin =  1469.6 PSIA
 Ac/At =  2.0000      Pinj/Pinf =  1.053593
 CASE = test___________

             REACTANT                    WT FRACTION      ENERGY      TEMP
                                          (SEE NOTE)     KJ/KG-MOL      K  
 FUEL        CH4(L)                       1.0000000    -89233.000    111.643
 OXIDANT     O2(L)                        1.0000000    -12979.000     90.170

 O/F=    1.17331  %FUEL= 46.012705  R,EQ.RATIO= 3.400000  PHI,EQ.RATIO= 3.400000

                 INJECTOR  COMB END  THROAT     EXIT
 Pinj/P            1.0000   1.1164   1.8573   14.857
 P, BAR            101.33   90.757   54.555   6.8198
 T, K             1381.37  1366.05  1281.57  1034.73
 RHO, KG/CU M    1.1734 1 1.0632 1 6.9400 0 1.1532 0
 H, KJ/KG        -2778.34 -2828.04 -3244.94 -4656.07
 U, KJ/KG        -3641.86 -3681.66 -4031.03 -5247.47
 G, KJ/KG        -22058.7 -21939.3 -21174.4 -19132.2
 S, KJ/(KG)(K)    13.9575  13.9902  13.9902  13.9902

 M, (1/n)          13.301   13.306   13.555   14.547
 MW, MOL WT        13.301   13.306   13.555   13.957
 (dLV/dLP)t      -1.10663 -1.10679 -1.11222 -1.11989
 (dLV/dLT)p        2.0812   2.0960   2.2344   2.6902
 Cp, KJ/(KG)(K)    9.8814  10.0537  11.3484  17.3984
 GAMMAs            1.2010   1.1994   1.1871   1.1336
 SON VEL,M/SEC     1018.4   1011.8    966.0    818.8
 MACH NUMBER        0.000    0.312    1.000    2.367

 PERFORMANCE PARAMETERS

 Ae/At                      2.0000   1.0000   3.0000
 CSTAR, M/SEC               1434.5   1434.5   1434.5
 CF                         0.2198   0.6734   1.3509
 Ivac, M/SEC                3022.7   1779.8   2243.1
 Isp, M/SEC                  315.3    966.0   1937.9

 MOLE FRACTIONS

 CH2             3.304-13 2.327-13 2.900-14 6.986-18
 CH3             7.6528-7 6.5004-7 2.6140-7 5.6089-9
 CH2OH           1.467-10 1.141-10 3.003-11 1.298-13
 CH3O            5.067-12 3.806-12 8.131-13 1.618-15
 CH4             7.2160-2 7.2384-2 8.3128-2 1.0047-1
 CH3OH           6.5836-7 5.8416-7 3.5583-7 3.8132-8
 *CO             2.8016-1 2.7940-1 2.6877-1 1.8781-1
 *CO2            2.9082-2 2.9766-2 3.6832-2 7.1471-2
 COOH            7.654-10 6.234-10 2.105-10 2.643-12
 C2H             1.422-16 9.090-17 6.168-18 1.100-22
 C2H2,acetylene  3.2164-7 2.7149-7 1.0202-7 1.3033-9
 C2H2,vinylidene 2.285-13 1.614-13 2.106-14 4.457-18
 CH2CO,ketene    9.8489-7 8.5245-7 4.0946-7 1.3927-8
 O(CH)2O         5.782-12 4.557-12 1.382-12 8.447-15
 HO(CO)2OH       9.661-15 7.675-15 2.966-15 5.007-17
 C2H3,vinyl      3.134-11 2.355-11 4.693-12 4.985-15
 CH3CO,acetyl    4.629-10 3.658-10 1.086-10 5.668-13
 C2H4            1.7304-5 1.5715-5 1.0275-5 1.0451-6
 C2H4O,ethylen-o 6.991-13 5.482-13 1.652-13 8.891-16
 CH3CHO,ethanal  2.0374-7 1.7865-7 1.0444-7 7.1708-9
 CH3COOH         9.310 -9 8.205 -9 5.457 -9 6.615-10
 OHCH2COOH       3.244-13 2.555-13 9.608-14 1.366-15
 C2H5            2.765 -9 2.235 -9 7.761-10 6.669-12
 C2H6            2.0829-5 1.9491-5 1.7156-5 5.2061-6
 C2H5OH          1.938 -9 1.636 -9 8.583-10 3.690-11
 CH3OCH3         3.983-12 3.205-12 1.265-12 1.810-14
 C2O             5.817-15 4.002-15 4.360-16 5.141-20
 C3H3,1-propynl  1.360-16 9.057-17 9.055-18 4.970-22
 C3H3,2-propynl  1.396-11 1.036-11 1.972-12 1.320-15
 C3H4,allene     8.568-10 6.940-10 2.365-10 1.461-12
 C3H4,propyne    2.551 -9 2.080 -9 7.371-10 5.272-12
 C3H4,cyclo-     3.748-13 2.793-13 5.810-14 5.345-17
 C3H5,allyl      1.135-10 8.941-11 2.745-11 1.114-13
 C3H6,propylene  7.8426-8 6.7832-8 3.8477-8 1.6017-9
 C3H6,cyclo-     1.086-10 9.085-11 4.229-11 8.310-13
 C3H6O,propylox  2.915-15 2.192-15 5.964-16 1.538-18
 C3H6O,acetone   5.994-10 5.103-10 2.904-10 1.267-11
 C3H6O,propanal  1.445-10 1.187-10 5.459-11 1.060-12
 C3H7,n-propyl   2.249-12 1.705-12 4.687-13 1.162-15
 C3H7,i-propyl   2.540-12 1.948-12 5.732-13 1.829-15
 C3H8            1.8203-8 1.6014-8 1.1324-8 1.0504-9
 C3H8O,1propanol 1.576-12 1.253-12 5.337-13 7.257-15
 C3H8O,2propanol 2.068-12 1.665-12 7.656-13 1.413-14
 C3O2            3.960-11 3.163-11 9.480-12 4.319-14
 C4H2,butadiyne  7.626-14 5.420-14 7.759-15 1.333-18
 C4H6,butadiene  9.413-11 7.569-11 2.868-11 1.924-13
 C4H6,1butyne    2.387-12 1.828-12 5.184-13 1.115-15
 C4H6,2butyne    3.546-12 2.780-12 9.045-13 3.280-15
 C4H6,cyclo-     7.504-14 5.810-14 1.758-14 4.905-17
 C4H8,1-butene   6.405-11 5.210-11 2.378-11 3.043-13
 C4H8,cis2-buten 3.422-11 2.813-11 1.366-11 2.204-13
 C4H8,tr2-butene 3.855-11 3.170-11 1.544-11 2.532-13
 C4H8,isobutene  4.883-11 4.037-11 2.030-11 3.766-13
 C4H8,cyclo-     1.536-14 1.217-14 4.758-15 3.382-17
 C4H9,n-butyl    5.748-15 4.145-15 9.820-16 9.759-19
 C4H9,i-butyl    3.919-15 2.850-15 7.097-16 8.579-19
 C4H9,s-butyl    3.919-15 2.829-15 6.740-16 6.777-19
 C4H9,t-butyl    1.694-15 1.254-15 3.470-16 6.155-19
 C4H10,n-butane  1.600-11 1.322-11 7.467-12 2.079-13
 C4H10,isobutane 6.388-12 5.322-12 3.160-12 1.068-13
 C5H6,1,3cyclo-  8.114-13 6.565-13 2.657-13 1.705-15
 C5H8,cyclo-     8.222-14 6.627-14 2.954-14 2.607-16
 C5H10,1-pentene 4.474-14 3.425-14 1.263-14 4.988-17
 C5H10,cyclo-    2.782-15 2.258-15 1.181-15 1.840-17
 C5H12,n-pentane 1.197-14 9.287-15 4.195-15 3.534-17
 C5H12,i-pentane 1.206-14 9.392-15 4.335-15 4.081-17
 CH3C(CH3)2CH3   7.205-16 5.631-16 2.675-16 2.988-18
 C6H6            9.084-12 7.933-12 5.203-12 1.593-13
 C6H5OH,phenol   8.318-15 6.713-15 3.034-15 2.310-17
 C7H8            6.064-14 5.049-14 2.889-14 3.694-16
 C8H8,styrene    1.191-16 9.189-17 3.433-17 6.379-20
 *H              2.6586-7 2.2575-7 7.8416-8 1.4169-9
 HCO             1.989 -8 1.622 -8 4.994 -9 4.198-11
 HCCO            1.091-12 7.968-13 1.311-13 7.363-17
 *H2             5.0807-1 5.0836-1 4.9628-1 4.5947-1
 HCHO,formaldehy 6.6728-6 5.9947-6 3.4911-6 3.3381-7
 HCOOH           1.7863-6 1.6173-6 1.0892-6 1.9625-7
 H2O             1.1048-1 1.1004-1 1.1496-1 1.4022-1
 H2O2            8.074-16 5.646-16 7.939-17 4.435-20
 (HCOOH)2        3.210-16 2.496-16 9.591-17 1.545-18
 *O              5.112-16 3.475-16 3.335-17 4.449-21
 *OH             1.276 -9 1.016 -9 2.643-10 1.575-12
 C(gr)           0.0000 0 0.0000 0 0.0000 0 4.0562-2

  * THERMODYNAMIC PROPERTIES FITTED TO 20000.K

 NOTE. WEIGHT FRACTION OF FUEL IN TOTAL FUELS AND OF OXIDANT IN TOTAL OXIDANTS

              THEORETICAL ROCKET PERFORMANCE ASSUMING EQUILIBRIUM

            COMPOSITION DURING EXPANSION FROM FINITE AREA COMBUSTOR

 Pin =  1469.6 PSIA
 Ac/At =  2.0000      Pinj/Pinf =  1.053474
 CASE = test___________

             REACTANT                    WT FRACTION      ENERGY      TEMP
                                          (SEE NOTE)     KJ/KG-MOL      K  
 FUEL        CH4(L)                       1.0000000    -89233.000    111.643
 OXIDANT     O2(L)                        1.0000000    -12979.000     90.170

 O/F=    1.13979  %FUEL= 46.733567  R,EQ.RATIO= 3.500000  PHI,EQ.RATIO= 3.500000

                 INJECTOR  COMB END  THROAT     EXIT
 Pinj/P            1.0000   1.1162   1.8549   14.760
 P, BAR            101.33   90.779   54.624   6.8650
 T, K             1366.65  1351.74  1269.98  1029.90
 RHO, KG/CU M    1.1922 1 1.0803 1 7.0480 0 1.1694 0
 H, KJ/KG        -2815.52 -2864.33 -3274.22 -4667.00
 U, KJ/KG        -3665.43 -3704.66 -4049.25 -5254.07
 G, KJ/KG        -21858.7 -21743.6 -21011.5 -19051.1
 S, KJ/(KG)(K)    13.9342  13.9666  13.9666  13.9666

 M, (1/n)          13.370   13.375   13.624   14.586
 MW, MOL WT        13.370   13.375   13.624   13.841
 (dLV/dLP)t      -1.11160 -1.11174 -1.11616 -1.11976
 (dLV/dLT)p        2.1449   2.1600   2.2903   2.6829
 Cp, KJ/(KG)(K)   10.3633  10.5421  11.7968  17.2912
 GAMMAs            1.1968   1.1953   1.1837   1.1332
 SON VEL,M/SEC     1008.6   1002.2    957.8    815.6
 MACH NUMBER        0.000    0.312    1.000    2.359

 PERFORMANCE PARAMETERS

 Ae/At                      2.0000   1.0000   3.0000
 CSTAR, M/SEC               1424.8   1424.8   1424.8
 CF                         0.2193   0.6723   1.3506
 Ivac, M/SEC                3001.9   1767.0   2229.4
 Isp, M/SEC                  312.5    957.8   1924.3

 MOLE FRACTIONS

 CH2             2.507-13 1.769-13 2.245-14 5.591-18
 CH3             7.2692-7 6.1779-7 2.4839-7 5.1530-9
 CH2OH           1.301-10 1.014-10 2.684-11 1.175-13
 CH3O            4.345-12 3.268-12 7.048-13 1.438-15
 CH4             8.4121-2 8.4343-2 9.5274-2 1.0480-1
 CH3OH           6.9301-7 6.1491-7 3.7174-7 3.8412-8
 *CO             2.7547-1 2.7470-1 2.6395-1 1.7667-1
 *CO2            2.9781-2 3.0472-2 3.7592-2 7.0645-2
 COOH            6.585-10 5.368-10 1.832-10 2.377-12
 C2H             1.013-16 6.492-17 4.501-18 7.958-23
 C2H2,acetylene  3.1312-7 2.6444-7 9.9005-8 1.1389-9
 C2H2,vinylidene 1.875-13 1.327-13 1.747-14 3.523-18
 CH2CO,ketene    9.9775-7 8.6379-7 4.1246-7 1.2771-8
 O(CH)2O         5.438-12 4.289-12 1.303-12 7.614-15
 HO(CO)2OH       9.450-15 7.511-15 2.904-15 4.858-17
 C2H3,vinyl      2.854-11 2.146-11 4.283-12 4.217-15
 CH3CO,acetyl    4.495-10 3.554-10 1.052-10 5.110-13
 C2H4            1.9778-5 1.7959-5 1.1543-5 1.0170-6
 C2H4O,ethylen-o 7.050-13 5.532-13 1.657-13 8.254-16
 CH3CHO,ethanal  2.2872-7 2.0054-7 1.1553-7 7.0821-9
 CH3COOH         1.067 -8 9.401 -9 6.162 -9 6.792-10
 OHCH2COOH       3.390-13 2.671-13 9.986-14 1.365-15
 C2H5            2.956 -9 2.390 -9 8.201-10 6.287-12
 C2H6            2.6814-5 2.5077-5 2.1482-5 5.5089-6
 C2H5OH          2.296 -9 1.937 -9 9.969-10 3.815-11
 CH3OCH3         4.505-12 3.625-12 1.409-12 1.821-14
 C2O             4.319-15 2.977-15 3.307-16 3.878-20
 C3H3,1-propynl  1.190-16 7.934-17 7.949-18 3.876-22
 C3H3,2-propynl  1.355-11 1.006-11 1.905-12 1.095-15
 C3H4,allene     9.464-10 7.668-10 2.571-10 1.316-12
 C3H4,propyne    2.836 -9 2.313 -9 8.058-10 4.766-12
 C3H4,cyclo-     3.822-13 2.851-13 5.871-14 4.596-17
 C3H5,allyl      1.277-10 1.006-10 3.035-11 1.022-13
 C3H6,propylene  1.0098-7 8.7304-8 4.8101-8 1.6003-9
 C3H6,cyclo-     1.354-10 1.133-10 5.135-11 8.153-13
 C3H6O,propylox  3.333-15 2.507-15 6.698-16 1.471-18
 C3H6O,acetone   7.722-10 6.572-10 3.636-10 1.299-11
 C3H6O,propanal  1.799-10 1.477-10 6.624-11 1.065-12
 C3H7,n-propyl   2.669-12 2.024-12 5.438-13 1.115-15
 C3H7,i-propyl   3.048-12 2.338-12 6.717-13 1.766-15
 C3H8            2.6071-8 2.2919-8 1.5602-8 1.1331-9
 C3H8O,1propanol 2.081-12 1.653-12 6.831-13 7.655-15
 C3H8O,2propanol 2.764-12 2.224-12 9.911-13 1.502-14
 C3O2            3.718-11 2.971-11 8.906-12 3.617-14
 C4H2,butadiyne  7.323-14 5.210-14 7.409-15 1.030-18
 C4H6,butadiene  1.219-10 9.800-11 3.600-11 1.823-13
 C4H6,1butyne    2.950-12 2.260-12 6.232-13 1.027-15
 C4H6,2butyne    4.481-12 3.513-12 1.110-12 3.060-15
 C4H6,cyclo-     9.371-14 7.256-14 2.134-14 4.548-17
 C4H8,1-butene   9.178-11 7.461-11 3.273-11 3.100-13
 C4H8,cis2-buten 4.953-11 4.069-11 1.897-11 2.258-13
 C4H8,tr2-butene 5.582-11 4.587-11 2.145-11 2.595-13
 C4H8,isobutene  7.107-11 5.873-11 2.834-11 3.871-13
 C4H8,cyclo-     2.146-14 1.700-14 6.399-15 3.397-17
 C4H9,n-butyl    7.676-15 5.535-15 1.267-15 9.612-19
 C4H9,i-butyl    5.276-15 3.836-15 9.223-16 8.491-19
 C4H9,s-butyl    5.238-15 3.781-15 8.700-16 6.675-19
 C4H9,t-butyl    2.320-15 1.717-15 4.579-16 6.146-19
 C4H10,n-butane  2.546-11 2.102-11 1.131-11 2.286-13
 C4H10,isobutane 1.025-11 8.533-12 4.822-12 1.180-13
 C5H6,1,3cyclo-  1.140-12 9.222-13 3.587-13 1.598-15
 C5H8,cyclo-     1.260-13 1.015-13 4.314-14 2.608-16
 C5H10,1-pentene 7.139-14 5.462-14 1.913-14 5.181-17
 C5H10,cyclo-    4.695-15 3.807-15 1.885-15 1.977-17
 C5H12,n-pentane 2.118-14 1.642-14 6.988-15 3.961-17
 C5H12,i-pentane 2.141-14 1.666-14 7.248-15 4.588-17
 CH3C(CH3)2CH3   1.284-15 1.003-15 4.494-16 3.376-18
 C6H6            1.482-11 1.293-11 8.034-12 1.538-13
 C6H5OH,phenol   1.278-14 1.031-14 4.440-15 2.210-17
 C7H7,benzyl     1.222-16 9.099-17 2.398-17 1.189-20
 C7H8            1.115-13 9.275-14 4.969-14 3.663-16
 C8H8,styrene    2.196-16 1.692-16 5.907-17 5.981-20
 C8H10,ethylbenz 1.115-16 8.697-17 3.662-17 7.347-20
 *H              2.1385-7 1.8180-7 6.4196-8 1.2363-9
 HCO             1.686 -8 1.376 -8 4.281 -9 3.648-11
 HCCO            8.976-13 6.562-13 1.092-13 5.937-17
 *H2             5.0050-1 5.0081-1 4.8869-1 4.5395-1
 HCHO,formaldehy 6.4951-6 5.8364-6 3.3964-6 3.1674-7
 HCOOH           1.7795-6 1.6114-6 1.0843-6 1.9390-7
 H2O             1.1007-1 1.0962-1 1.1445-1 1.4285-1
 H2O2            5.819-16 4.076-16 5.885-17 3.839-20
 (HCOOH)2        3.366-16 2.619-16 1.001-16 1.587-18
 *O              3.225-16 2.197-16 2.188-17 3.429-21
 *OH             9.802-10 7.814-10 2.075-10 1.370-12
 C(gr)           0.0000 0 0.0000 0 0.0000 0 5.1079-2

  * THERMODYNAMIC PROPERTIES FITTED TO 20000.K

 NOTE. WEIGHT FRACTION OF FUEL IN TOTAL FUELS AND OF OXIDANT IN TOTAL OXIDANTS

              THEORETICAL ROCKET PERFORMANCE ASSUMING EQUILIBRIUM

            COMPOSITION DURING EXPANSION FROM FINITE AREA COMBUSTOR

 Pin =  1469.6 PSIA
 Ac/At =  2.0000      Pinj/Pinf =  1.053368
 CASE = test___________

             REACTANT                    WT FRACTION      ENERGY      TEMP
                                          (SEE NOTE)     KJ/KG-MOL      K  
 FUEL        CH4(L)                       1.0000000    -89233.000    111.643
 OXIDANT     O2(L)                        1.0000000    -12979.000     90.170

 O/F=    1.10813  %FUEL= 47.435433  R,EQ.RATIO= 3.600000  PHI,EQ.RATIO= 3.600000

                 INJECTOR  COMB END  THROAT     EXIT
 Pinj/P            1.0000   1.1159   1.8529   14.676
 P, BAR            101.33   90.798   54.686   6.9041
 T, K             1353.42  1338.86  1259.40  1025.03
 RHO, KG/CU M    1.2103 1 1.0967 1 7.1523 0 1.1849 0
 H, KJ/KG        -2851.71 -2899.70 -3303.08 -4679.05
 U, KJ/KG        -3688.91 -3727.60 -4067.67 -5261.72
 G, KJ/KG        -21677.7 -21566.4 -20861.9 -18970.1
 S, KJ/(KG)(K)    13.9100  13.9422  13.9422  13.9422

 M, (1/n)          13.441   13.446   13.695   14.627
 MW, MOL WT        13.441   13.446   13.695   13.736
 (dLV/dLP)t      -1.11538 -1.11551 -1.11909 -1.11950
 (dLV/dLT)p        2.1962   2.2116   2.3349   2.6742
 Cp, KJ/(KG)(K)   10.7609  10.9444  12.1624  17.1691
 GAMMAs            1.1932   1.1917   1.1807   1.1329
 SON VEL,M/SEC      999.5    993.3    950.1    812.5
 MACH NUMBER        0.000    0.312    1.000    2.353

 PERFORMANCE PARAMETERS

 Ae/At                      2.0000   1.0000   3.0000
 CSTAR, M/SEC               1415.5   1415.5   1415.5
 CF                         0.2189   0.6712   1.3506
 Ivac, M/SEC                2982.1   1754.9   2216.5
 Isp, M/SEC                  309.8    950.1   1911.7

 MOLE FRACTIONS

 CH2             1.933-13 1.366-13 1.759-14 4.458-18
 CH3             6.8830-7 5.8528-7 2.3539-7 4.7237-9
 CH2OH           1.161-10 9.048-11 2.408-11 1.061-13
 CH3O            3.757-12 2.828-12 6.148-13 1.273-15
 CH4             9.6053-2 9.6271-2 1.0735-1 1.0920-1
 CH3OH           7.2271-7 6.4127-7 3.8531-7 3.8597-8
 *CO             2.7078-1 2.7001-1 2.5917-1 1.6618-1
 *CO2            3.0483-2 3.1181-2 3.8348-2 6.9819-2
 COOH            5.739-10 4.681-10 1.610-10 2.132-12
 C2H2,acetylene  3.021 -7 2.553 -7 9.536 -8 9.931-10
 C2H2,vinylidene 1.547-13 1.096-13 1.456-14 2.774-18
 CH2CO,ketene    1.0016-6 8.6737-7 4.1231-7 1.1684-8
 O(CH)2O         5.116-12 4.037-12 1.228-12 6.840-15
 HO(CO)2OH       9.273-15 7.372-15 2.849-15 4.696-17
 C2H3,vinyl      2.588-11 1.948-11 3.893-12 3.555-15
 CH3CO,acetyl    4.337-10 3.431-10 1.014-10 4.591-13
 C2H4            2.2074-5 2.0042-5 1.2715-5 9.8743-7
 C2H4O,ethylen-o 7.036-13 5.524-13 1.648-13 7.633-16
 CH3CHO,ethanal  2.5188-7 2.2083-7 1.2577-7 6.9748-9
 CH3COOH         1.201 -8 1.058 -8 6.855 -9 6.952-10
 OHCH2COOH       3.518-13 2.773-13 1.031-13 1.357-15
 C2H5            3.100 -9 2.508 -9 8.529-10 5.905-12
 C2H6            3.3324-5 3.1151-5 2.6129-5 5.8138-6
 C2H5OH          2.651 -9 2.236 -9 1.134 -9 3.929-11
 CH3OCH3         4.987-12 4.013-12 1.541-12 1.825-14
 C2O             3.266-15 2.255-15 2.545-16 2.915-20
 C3H3,1-propynl  1.035-16 6.909-17 6.943-18 3.008-22
 C3H3,2-propynl  1.296-11 9.634-12 1.817-12 9.041-16
 C3H4,allene     1.019 -9 8.258-10 2.736-10 1.181-12
 C3H4,propyne    3.071 -9 2.505 -9 8.620-10 4.294-12
 C3H4,cyclo-     3.824-13 2.855-13 5.839-14 3.936-17
 C3H5,allyl      1.397-10 1.101-10 3.278-11 9.339-14
 C3H6,propylene  1.2492-7 1.0798-7 5.8184-8 1.5931-9
 C3H6,cyclo-     1.627-10 1.361-10 6.047-11 7.969-13
 C3H6O,propylox  3.709-15 2.791-15 7.353-16 1.401-18
 C3H6O,acetone   9.589-10 8.158-10 4.416-10 1.326-11
 C3H6O,propanal  2.164-10 1.777-10 7.814-11 1.066-12
 C3H7,n-propyl   3.061-12 2.322-12 6.133-13 1.064-15
 C3H7,i-propyl   3.532-12 2.710-12 7.645-13 1.696-15
 C3H8            3.5506-8 3.1197-8 2.0623-8 1.2174-9
 C3H8O,1propanol 2.637-12 2.095-12 8.453-13 8.032-15
 C3H8O,2propanol 3.542-12 2.850-12 1.240-12 1.588-14
 C3O2            3.482-11 2.784-11 8.345-12 3.021-14
 C4H2,butadiyne  6.913-14 4.924-14 6.975-15 7.925-19
 C4H6,butadiene  1.509-10 1.213-10 4.353-11 1.720-13
 C4H6,1butyne    3.498-12 2.681-12 7.241-13 9.414-16
 C4H6,2butyne    5.424-12 4.253-12 1.314-12 2.841-15
 C4H6,cyclo-     1.122-13 8.690-14 2.502-14 4.197-17
 C4H8,1-butene   1.245-10 1.012-10 4.303-11 3.143-13
 C4H8,cis2-buten 6.779-11 5.567-11 2.515-11 2.301-13
 C4H8,tr2-butene 7.642-11 6.279-11 2.845-11 2.646-13
 C4H8,isobutene  9.778-11 8.076-11 3.775-11 3.960-13
 C4H8,cyclo-     2.844-14 2.253-14 8.238-15 3.394-17
 C4H9,n-butyl    9.748-15 7.031-15 1.567-15 9.406-19
 C4H9,i-butyl    6.750-15 4.909-15 1.149-15 8.350-19
 C4H9,s-butyl    6.659-15 4.808-15 1.077-15 6.533-19
 C4H9,t-butyl    3.015-15 2.232-15 5.787-16 6.099-19
 C4H10,n-butane  3.797-11 3.133-11 1.624-11 2.499-13
 C4H10,isobutane 1.540-11 1.281-11 6.968-12 1.296-13
 C5H6,1,3cyclo-  1.514-12 1.225-12 4.623-13 1.492-15
 C5H8,cyclo-     1.808-13 1.456-13 5.973-14 2.596-16
 C5H10,1-pentene 1.062-13 8.121-14 2.736-14 5.346-17
 C5H10,cyclo-    7.354-15 5.960-15 2.828-15 2.112-17
 C5H12,n-pentane 3.458-14 2.679-14 1.089-14 4.408-17
 C5H12,i-pentane 3.507-14 2.727-14 1.134-14 5.122-17
 CH3C(CH3)2CH3   2.110-15 1.648-15 7.062-16 3.788-18
 C6H6            2.246-11 1.959-11 1.168-11 1.478-13
 C6H5OH,phenol   1.839-14 1.483-14 6.157-15 2.102-17
 C7H7,benzyl     1.789-16 1.332-16 3.371-17 1.066-20
 C7H8            1.876-13 1.559-13 7.939-14 3.612-16
 C7H8O,cresol-mx 1.245-16 9.574-17 3.415-17 4.302-20
 C8H8,styrene    3.684-16 2.837-16 9.405-17 5.574-20
 C8H10,ethylbenz 2.051-16 1.599-16 6.349-17 7.370-20
 *H              1.7496-7 1.4890-7 5.3281-8 1.0774-9
 HCO             1.445 -8 1.180 -8 3.703 -9 3.164-11
 HCCO            7.447-13 5.451-13 9.154-14 4.771-17
 *H2             4.9277-1 4.9310-1 4.8101-1 4.4842-1
 HCHO,formaldehy 6.3147-6 5.6755-6 3.3005-6 3.0002-7
 HCOOH           1.7730-6 1.6057-6 1.0791-6 1.9121-7
 H2O             1.0984-1 1.0937-1 1.1408-1 1.4545-1
 H2O2            4.326-16 3.035-16 4.473-17 3.310-20
 (HCOOH)2        3.516-16 2.735-16 1.041-16 1.621-18
 *O              2.119-16 1.447-16 1.484-17 2.634-21
 *OH             7.710-10 6.153-10 1.661-10 1.189-12
 C(gr)           0.0000 0 0.0000 0 0.0000 0 6.0926-2

  * THERMODYNAMIC PROPERTIES FITTED TO 20000.K

 NOTE. WEIGHT FRACTION OF FUEL IN TOTAL FUELS AND OF OXIDANT IN TOTAL OXIDANTS

              THEORETICAL ROCKET PERFORMANCE ASSUMING EQUILIBRIUM

            COMPOSITION DURING EXPANSION FROM FINITE AREA COMBUSTOR

 Pin =  1469.6 PSIA
 Ac/At =  2.0000      Pinj/Pinf =  1.053272
 CASE = test___________

             REACTANT                    WT FRACTION      ENERGY      TEMP
                                          (SEE NOTE)     KJ/KG-MOL      K  
 FUEL        CH4(L)                       1.0000000    -89233.000    111.643
 OXIDANT     O2(L)                        1.0000000    -12979.000     90.170

 O/F=    1.07818  %FUEL= 48.119043  R,EQ.RATIO= 3.700000  PHI,EQ.RATIO= 3.700000

                 INJECTOR  COMB END  THROAT     EXIT
 Pinj/P            1.0000   1.1157   1.8510   14.604
 P, BAR            101.33   90.816   54.742   6.9381
 T, K             1341.34  1327.11  1249.65  1020.14
 RHO, KG/CU M    1.2278 1 1.1127 1 7.2535 0 1.1998 0
 H, KJ/KG        -2886.96 -2934.19 -3331.46 -4691.91
 U, KJ/KG        -3712.19 -3750.39 -4086.16 -5270.16
 G, KJ/KG        -21511.6 -21403.6 -20722.9 -18889.3
 S, KJ/(KG)(K)    13.8851  13.9171  13.9171  13.9171

 M, (1/n)          13.514   13.519   13.767   14.668
 MW, MOL WT        13.514   13.519   13.767   13.640
 (dLV/dLP)t      -1.11823 -1.11834 -1.12124 -1.11914
 (dLV/dLT)p        2.2378   2.2532   2.3703   2.6641
 Cp, KJ/(KG)(K)   11.0906  11.2774  12.4609  17.0333
 GAMMAs            1.1898   1.1884   1.1779   1.1326
 SON VEL,M/SEC      990.9    984.9    942.9    809.3
 MACH NUMBER        0.000    0.312    1.000    2.348

 PERFORMANCE PARAMETERS

 Ae/At                      2.0000   1.0000   3.0000
 CSTAR, M/SEC               1406.6   1406.6   1406.6
 CF                         0.2185   0.6703   1.3507
 Ivac, M/SEC                2963.1   1743.3   2204.3
 Isp, M/SEC                  307.3    942.9   1900.0

 MOLE FRACTIONS

 CH2             1.509-13 1.068-13 1.394-14 3.545-18
 CH3             6.5023-7 5.5319-7 2.2260-7 4.3220-9
 CH2OH           1.040-10 8.112-11 2.168-11 9.542-14
 CH3O            3.270-12 2.464-12 5.391-13 1.124-15
 CH4             1.0792-1 1.0813-1 1.1934-1 1.1366-1
 CH3OH           7.4818-7 6.6387-7 3.9687-7 3.8692-8
 *CO             2.6611-1 2.6535-1 2.5442-1 1.5631-1
 *CO2            3.1186-2 3.1889-2 3.9100-2 6.8986-2
 COOH            5.051-10 4.123-10 1.427-10 1.909-12
 C2H2,acetylene  2.895 -7 2.448 -7 9.132 -8 8.645-10
 C2H2,vinylidene 1.281-13 9.090-14 1.216-14 2.178-18
 CH2CO,ketene    9.9848-7 8.6487-7 4.0968-7 1.0670-8
 O(CH)2O         4.812-12 3.799-12 1.156-12 6.127-15
 HO(CO)2OH       9.118-15 7.250-15 2.799-15 4.522-17
 C2H3,vinyl      2.339-11 1.762-11 3.529-12 2.989-15
 CH3CO,acetyl    4.163-10 3.296-10 9.730-11 4.113-13
 C2H4            2.4186-5 2.1960-5 1.3790-5 9.5690-7
 C2H4O,ethylen-o 6.966-13 5.472-13 1.627-13 7.035-16
 CH3CHO,ethanal  2.7325-7 2.3956-7 1.3519-7 6.8515-9
 CH3COOH         1.334 -8 1.175 -8 7.535 -9 7.096-10
 OHCH2COOH       3.630-13 2.862-13 1.060-13 1.344-15
 C2H5            3.204 -9 2.593 -9 8.758-10 5.529-12
 C2H6            4.0292-5 3.7651-5 3.1058-5 6.1206-6
 C2H5OH          3.001 -9 2.532 -9 1.268 -9 4.032-11
 CH3OCH3         5.429-12 4.369-12 1.661-12 1.822-14
 C2O             2.505-15 1.732-15 1.981-16 2.185-20
 C3H3,2-propynl  1.227-11 9.127-12 1.718-12 7.444-16
 C3H4,allene     1.075 -9 8.720-10 2.863-10 1.057-12
 C3H4,propyne    3.259 -9 2.659 -9 9.066-10 3.857-12
 C3H4,cyclo-     3.771-13 2.817-13 5.735-14 3.358-17
 C3H5,allyl      1.496-10 1.180-10 3.476-11 8.506-14
 C3H6,propylene  1.4983-7 1.2950-7 6.8569-8 1.5810-9
 C3H6,cyclo-     1.899-10 1.588-10 6.949-11 7.762-13
 C3H6O,propylox  4.042-15 3.042-15 7.930-16 1.327-18
 C3H6O,acetone   1.157 -9 9.841-10 5.234-10 1.349-11
 C3H6O,propanal  2.535-10 2.082-10 9.014-11 1.062-12
 C3H7,n-propyl   3.419-12 2.595-12 6.764-13 1.012-15
 C3H7,i-propyl   3.983-12 3.056-12 8.504-13 1.622-15
 C3H8            4.6497-8 4.0838-8 2.6375-8 1.3030-9
 C3H8O,1propanol 3.238-12 2.572-12 1.018-12 8.386-15
 C3H8O,2propanol 4.395-12 3.536-12 1.508-12 1.671-14
 C3O2            3.254-11 2.603-11 7.804-12 2.518-14
 C4H2,butadiyne  6.441-14 4.593-14 6.493-15 6.079-19
 C4H6,butadiene  1.804-10 1.451-10 5.111-11 1.616-13
 C4H6,1butyne    4.019-12 3.081-12 8.189-13 8.595-16
 C4H6,2butyne    6.351-12 4.980-12 1.512-12 2.628-15
 C4H6,cyclo-     1.300-13 1.007-13 2.853-14 3.857-17
 C4H8,1-butene   1.617-10 1.314-10 5.457-11 3.171-13
 C4H8,cis2-buten 8.884-11 7.294-11 3.215-11 2.335-13
 C4H8,tr2-butene 1.002-10 8.230-11 3.638-11 2.687-13
 C4H8,isobutene  1.288-10 1.063-10 4.848-11 4.033-13
 C4H8,cyclo-     3.617-14 2.865-14 1.024-14 3.375-17
 C4H9,n-butyl    1.191-14 8.592-15 1.877-15 9.153-19
 C4H9,i-butyl    8.302-15 6.040-15 1.385-15 8.166-19
 C4H9,s-butyl    8.141-15 5.879-15 1.291-15 6.358-19
 C4H9,t-butyl    3.764-15 2.786-15 7.067-16 6.019-19
 C4H10,n-butane  5.381-11 4.438-11 2.233-11 2.718-13
 C4H10,isobutane 2.197-11 1.827-11 9.644-12 1.417-13
 C5H6,1,3cyclo-  1.926-12 1.557-12 5.742-13 1.388-15
 C5H8,cyclo-     2.468-13 1.987-13 7.923-14 2.572-16
 C5H10,1-pentene 1.496-13 1.143-13 3.735-14 5.485-17
 C5H10,cyclo-    1.087-14 8.804-15 4.040-15 2.243-17
 C5H12,n-pentane 5.303-14 4.108-14 1.611-14 4.874-17
 C5H12,i-pentane 5.394-14 4.193-14 1.682-14 5.682-17
 CH3C(CH3)2CH3   3.257-15 2.543-15 1.052-15 4.225-18
 C6H6            3.217-11 2.804-11 1.619-11 1.416-13
 C6H5OH,phenol   2.516-14 2.028-14 8.182-15 1.991-17
 C6H10,cyclo-    1.035-16 7.953-17 2.712-17 3.152-20
 C6H12,1-hexene  1.373-16 9.871-17 2.535-17 9.395-21
 C7H7,benzyl     2.469-16 1.838-16 4.510-17 9.502-21
 C7H8            2.943-13 2.444-13 1.197-13 3.546-16
 C7H8O,cresol-mx 1.867-16 1.435-16 4.938-17 4.178-20
 C8H8,styrene    5.744-16 4.422-16 1.408-16 5.165-20
 C8H10,ethylbenz 3.480-16 2.711-16 1.028-16 7.347-20
 *H              1.451 -7 1.236 -7 4.471 -8 9.381-10
 HCO             1.249 -8 1.021 -8 3.225 -9 2.738-11
 HCCO            6.223-13 4.560-13 7.717-14 3.823-17
 *H2             4.8497-1 4.8532-1 4.7329-1 4.4288-1
 HCHO,formaldehy 6.1336-6 5.5138-6 3.2044-6 2.8377-7
 HCOOH           1.7664-6 1.5998-6 1.0737-6 1.8822-7
 H2O             1.0973-1 1.0924-1 1.1381-1 1.4800-1
 H2O2            3.295-16 2.315-16 3.468-17 2.844-20
 (HCOOH)2        3.658-16 2.847-16 1.078-16 1.649-18
 *O              1.438-16 9.835-17 1.033-17 2.019-21
 *OH             6.178-10 4.935-10 1.350-10 1.030-12
 C(gr)           0.0000 0 0.0000 0 0.0000 0 7.0141-2

  * THERMODYNAMIC PROPERTIES FITTED TO 20000.K

 NOTE. WEIGHT FRACTION OF FUEL IN TOTAL FUELS AND OF OXIDANT IN TOTAL OXIDANTS

              THEORETICAL ROCKET PERFORMANCE ASSUMING EQUILIBRIUM

            COMPOSITION DURING EXPANSION FROM FINITE AREA COMBUSTOR

 Pin =  1469.6 PSIA
 Ac/At =  2.0000      Pinj/Pinf =  1.053184
 CASE = test___________

             REACTANT                    WT FRACTION      ENERGY      TEMP
                                          (SEE NOTE)     KJ/KG-MOL      K  
 FUEL        CH4(L)                       1.0000000    -89233.000    111.643
 OXIDANT     O2(L)                        1.0000000    -12979.000     90.170

 O/F=    1.04981  %FUEL= 48.785100  R,EQ.RATIO= 3.800000  PHI,EQ.RATIO= 3.800000

                 INJECTOR  COMB END  THROAT     EXIT
 Pinj/P            1.0000   1.1155   1.8492   14.542
 P, BAR            101.33   90.832   54.793   6.9677
 T, K             1330.19  1316.25  1240.56  1015.26
 RHO, KG/CU M    1.2449 1 1.1282 1 7.3520 0 1.2143 0
 H, KJ/KG        -2921.31 -2967.81 -3359.33 -4705.38
 U, KJ/KG        -3735.22 -3772.95 -4104.61 -5279.19
 G, KJ/KG        -21357.4 -21252.5 -20592.6 -18808.9
 S, KJ/(KG)(K)    13.8598  13.8915  13.8915  13.8915

 M, (1/n)          13.589   13.593   13.840   14.711
 MW, MOL WT        13.589   13.593   13.840   13.553
 (dLV/dLP)t      -1.12034 -1.12044 -1.12275 -1.11867
 (dLV/dLT)p        2.2714   2.2869   2.3984   2.6527
 Cp, KJ/(KG)(K)   11.3646  11.5538  12.7045  16.8854
 GAMMAs            1.1868   1.1855   1.1755   1.1323
 SON VEL,M/SEC      982.8    977.0    936.0    806.1
 MACH NUMBER        0.000    0.312    1.000    2.343

 PERFORMANCE PARAMETERS

 Ae/At                      2.0000   1.0000   3.0000
 CSTAR, M/SEC               1398.1   1398.1   1398.1
 CF                         0.2181   0.6694   1.3511
 Ivac, M/SEC                2945.0   1732.2   2192.7
 Isp, M/SEC                  305.0    936.0   1889.0

 MOLE FRACTIONS

 CH2             1.191-13 8.443-14 1.114-14 2.813-18
 CH3             6.1320-7 5.2196-7 2.1017-7 3.9483-9
 CH2OH           9.351-11 7.299-11 1.957-11 8.563-14
 CH3O            2.862-12 2.159-12 4.747-13 9.895-16
 CH4             1.1970-1 1.1990-1 1.3121-1 1.1819-1
 CH3OH           7.6999-7 6.8324-7 4.0668-7 3.8705-8
 *CO             2.6148-1 2.6071-1 2.4971-1 1.4703-1
 *CO2            3.1887-2 3.2595-2 3.9847-2 6.8144-2
 COOH            4.482-10 3.660-10 1.273-10 1.705-12
 C2H2,acetylene  2.760 -7 2.335 -7 8.705 -8 7.515-10
 C2H2,vinylidene 1.065-13 7.567-14 1.019-14 1.706-18
 CH2CO,ketene    9.8983-7 8.5760-7 4.0507-7 9.7273-9
 O(CH)2O         4.527-12 3.576-12 1.089-12 5.474-15
 HO(CO)2OH       8.980-15 7.141-15 2.752-15 4.340-17
 C2H3,vinyl      2.109-11 1.590-11 3.192-12 2.506-15
 CH3CO,acetyl    3.981-10 3.154-10 9.302-11 3.675-13
 C2H4            2.6115-5 2.3713-5 1.4769-5 9.2573-7
 C2H4O,ethylen-o 6.853-13 5.386-13 1.597-13 6.466-16
 CH3CHO,ethanal  2.9291-7 2.5679-7 1.4382-7 6.7147-9
 CH3COOH         1.464 -8 1.289 -8 8.202 -9 7.223-10
 OHCH2COOH       3.728-13 2.940-13 1.084-13 1.327-15
 C2H5            3.273 -9 2.650 -9 8.903-10 5.163-12
 C2H6            4.7660-5 4.4524-5 3.6232-5 6.4289-6
 C2H5OH          3.343 -9 2.821 -9 1.398 -9 4.124-11
 CH3OCH3         5.830-12 4.693-12 1.770-12 1.812-14
 C2O             1.944-15 1.346-15 1.557-16 1.634-20
 C3H3,2-propynl  1.152-11 8.575-12 1.612-12 6.114-16
 C3H4,allene     1.118 -9 9.066-10 2.956-10 9.440-13
 C3H4,propyne    3.404 -9 2.779 -9 9.404-10 3.456-12
 C3H4,cyclo-     3.676-13 2.748-13 5.576-14 2.858-17
 C3H5,allyl      1.575-10 1.243-10 3.633-11 7.724-14
 C3H6,propylene  1.7532-7 1.5153-7 7.9118-8 1.5645-9
 C3H6,cyclo-     2.165-10 1.811-10 7.829-11 7.538-13
 C3H6O,propylox  4.331-15 3.262-15 8.428-16 1.253-18
 C3H6O,acetone   1.364 -9 1.160 -9 6.083-10 1.367-11
 C3H6O,propanal  2.908-10 2.388-10 1.021-10 1.055-12
 C3H7,n-propyl   3.740-12 2.839-12 7.325-13 9.581-16
 C3H7,i-propyl   4.395-12 3.374-12 9.285-13 1.546-15
 C3H8            5.9014-8 5.1816-8 3.2841-8 1.3898-9
 C3H8O,1propanol 3.876-12 3.079-12 1.200-12 8.717-15
 C3H8O,2propanol 5.314-12 4.275-12 1.795-12 1.751-14
 C3O2            3.036-11 2.431-11 7.287-12 2.094-14
 C4H2,butadiyne  5.943-14 4.243-14 5.992-15 4.650-19
 C4H6,butadiene  2.098-10 1.687-10 5.860-11 1.513-13
 C4H6,1butyne    4.502-12 3.452-12 9.062-13 7.817-16
 C4H6,2butyne    7.241-12 5.680-12 1.701-12 2.421-15
 C4H6,cyclo-     1.469-13 1.138-13 3.183-14 3.532-17
 C4H8,1-butene   2.031-10 1.650-10 6.722-11 3.187-13
 C4H8,cis2-buten 1.125-10 9.233-11 3.990-11 2.360-13
 C4H8,tr2-butene 1.269-10 1.042-10 4.517-11 2.717-13
 C4H8,isobutene  1.637-10 1.352-10 6.042-11 4.092-13
 C4H8,cyclo-     4.452-14 3.526-14 1.238-14 3.342-17
 C4H9,n-butyl    1.410-14 1.018-14 2.188-15 8.861-19
 C4H9,i-butyl    9.896-15 7.202-15 1.624-15 7.945-19
 C4H9,s-butyl    9.649-15 6.971-15 1.506-15 6.155-19
 C4H9,t-butyl    4.548-15 3.368-15 8.395-16 5.910-19
 C4H10,n-butane  7.323-11 6.038-11 2.966-11 2.943-13
 C4H10,isobutane 3.009-11 2.502-11 1.289-11 1.541-13
 C5H6,1,3cyclo-  2.365-12 1.913-12 6.923-13 1.286-15
 C5H8,cyclo-     3.235-13 2.605-13 1.016-13 2.538-16
 C5H10,1-pentene 2.017-13 1.542-13 4.913-14 5.598-17
 C5H10,cyclo-    1.533-14 1.242-14 5.546-15 2.371-17
 C5H12,n-pentane 7.739-14 5.992-14 2.283-14 5.358-17
 C5H12,i-pentane 7.892-14 6.133-14 2.391-14 6.267-17
 CH3C(CH3)2CH3   4.783-15 3.734-15 1.502-15 4.684-18
 C6H6            4.404-11 3.838-11 2.160-11 1.352-13
 C6H5OH,phenol   3.306-14 2.664-14 1.050-14 1.879-17
 C6H10,cyclo-    1.473-16 1.132-16 3.752-17 3.188-20
 C6H12,1-hexene  1.987-16 1.429-16 3.561-17 9.737-21
 C7H7,benzyl     3.252-16 2.421-16 5.796-17 8.432-21
 C7H8            4.370-13 3.628-13 1.721-13 3.465-16
 C7H8O,cresol-mx 2.663-16 2.047-16 6.838-17 4.037-20
 C8H8,styrene    8.451-16 6.505-16 2.006-16 4.763-20
 C8H10,ethylbenz 5.536-16 4.311-16 1.576-16 7.284-20
 *H              1.216 -7 1.037 -7 3.786 -8 8.162-10
 HCO             1.087 -8 8.891 -9 2.825 -9 2.367-11
 HCCO            5.230-13 3.837-13 6.537-14 3.057-17
 *H2             4.7714-1 4.7751-1 4.6557-1 4.3736-1
 HCHO,formaldehy 5.9534-6 5.3528-6 3.1088-6 2.6804-7
 HCOOH           1.7596-6 1.5937-6 1.0680-6 1.8497-7
 H2O             1.0971-1 1.0920-1 1.1362-1 1.5051-1
 H2O2            2.559-16 1.800-16 2.732-17 2.436-20
 (HCOOH)2        3.795-16 2.953-16 1.114-16 1.670-18
 *O              1.001-16 6.859-17 7.351-18 1.544-21
 *OH             5.024-10 4.017-10 1.110-10 8.908-13
 C(gr)           0.0000 0 0.0000 0 0.0000 0 7.8761-2

  * THERMODYNAMIC PROPERTIES FITTED TO 20000.K

 NOTE. WEIGHT FRACTION OF FUEL IN TOTAL FUELS AND OF OXIDANT IN TOTAL OXIDANTS

              THEORETICAL ROCKET PERFORMANCE ASSUMING EQUILIBRIUM

            COMPOSITION DURING EXPANSION FROM FINITE AREA COMBUSTOR

 Pin =  1469.6 PSIA
 Ac/At =  2.0000      Pinj/Pinf =  1.053104
 CASE = test___________

             REACTANT                    WT FRACTION      ENERGY      TEMP
                                          (SEE NOTE)     KJ/KG-MOL      K  
 FUEL        CH4(L)                       1.0000000    -89233.000    111.643
 OXIDANT     O2(L)                        1.0000000    -12979.000     90.170

 O/F=    1.02289  %FUEL= 49.434272  R,EQ.RATIO= 3.900000  PHI,EQ.RATIO= 3.900000

                 INJECTOR  COMB END  THROAT     EXIT
 Pinj/P            1.0000   1.1153   1.8476   14.489
 P, BAR            101.33   90.847   54.840   6.9934
 T, K             1319.81  1306.14  1232.03  1010.39
 RHO, KG/CU M    1.2616 1 1.1433 1 7.4481 0 1.2283 0
 H, KJ/KG        -2954.78 -3000.61 -3386.67 -4719.29
 U, KJ/KG        -3757.94 -3795.22 -4122.97 -5288.65
 G, KJ/KG        -21213.0 -21110.9 -20469.5 -18728.8
 S, KJ/(KG)(K)    13.8340  13.8655  13.8655  13.8655

 M, (1/n)          13.663   13.667   13.913   14.755
 MW, MOL WT        13.663   13.667   13.913   13.474
 (dLV/dLP)t      -1.12187 -1.12195 -1.12376 -1.11811
 (dLV/dLT)p        2.2985   2.3140   2.4204   2.6400
 Cp, KJ/(KG)(K)   11.5927  11.7834  12.9025  16.7266
 GAMMAs            1.1841   1.1827   1.1731   1.1321
 SON VEL,M/SEC      975.2    969.4    929.4    802.9
 MACH NUMBER        0.000    0.312    1.000    2.340

 PERFORMANCE PARAMETERS

 Ae/At                      2.0000   1.0000   3.0000
 CSTAR, M/SEC               1389.9   1389.9   1389.9
 CF                         0.2178   0.6687   1.3515
 Ivac, M/SEC                2927.5   1721.6   2181.7
 Isp, M/SEC                  302.7    929.4   1878.6

 MOLE FRACTIONS

 CH2             9.483-14 6.732-14 8.962-15 2.228-18
 CH3             5.7751-7 4.9182-7 1.9818-7 3.6018-9
 CH2OH           8.432-11 6.586-11 1.771-11 7.668-14
 CH3O            2.516-12 1.899-12 4.195-13 8.692-16
 CH4             1.3137-1 1.3156-1 1.4296-1 1.2278-1
 CH3OH           7.8859-7 6.9976-7 4.1495-7 3.8641-8
 *CO             2.5689-1 2.5611-1 2.4505-1 1.3829-1
 *CO2            3.2585-2 3.3298-2 4.0587-2 6.7291-2
 COOH            4.003-10 3.270-10 1.142-10 1.521-12
 C2H2,acetylene  2.621 -7 2.219 -7 8.268 -8 6.525-10
 C2H2,vinylidene 8.883-14 6.319-14 8.564-15 1.334-18
 CH2CO,ketene    9.7686-7 8.4657-7 3.9892-7 8.8547-9
 O(CH)2O         4.260-12 3.366-12 1.025-12 4.879-15
 HO(CO)2OH       8.853-15 7.040-15 2.707-15 4.152-17
 C2H3,vinyl      1.898-11 1.433-11 2.882-12 2.097-15
 CH3CO,acetyl    3.796-10 3.008-10 8.868-11 3.277-13
 C2H4            2.7865-5 2.5304-5 1.5656-5 8.9419-7
 C2H4O,ethylen-o 6.707-13 5.273-13 1.560-13 5.926-16
 CH3CHO,ethanal  3.1092-7 2.7258-7 1.5170-7 6.5664-9
 CH3COOH         1.592 -8 1.402 -8 8.856 -9 7.334-10
 OHCH2COOH       3.814-13 3.008-13 1.105-13 1.305-15
 C2H5            3.311 -9 2.682 -9 8.975-10 4.810-12
 C2H6            5.5378-5 5.1722-5 4.1619-5 6.7383-6
 C2H5OH          3.677 -9 3.102 -9 1.525 -9 4.206-11
 CH3OCH3         6.193-12 4.985-12 1.868-12 1.797-14
 C2O             1.523-15 1.056-15 1.234-16 1.220-20
 C3H3,2-propynl  1.074-11 8.004-12 1.504-12 5.010-16
 C3H4,allene     1.147 -9 9.308-10 3.018-10 8.410-13
 C3H4,propyne    3.510 -9 2.867 -9 9.645-10 3.091-12
 C3H4,cyclo-     3.551-13 2.657-13 5.378-14 2.425-17
 C3H5,allyl      1.635-10 1.291-10 3.751-11 6.995-14
 C3H6,propylene  2.0108-7 1.7379-7 8.9714-8 1.5442-9
 C3H6,cyclo-     2.424-10 2.028-10 8.678-11 7.301-13
 C3H6O,propylox  4.579-15 3.450-15 8.850-16 1.178-18
 C3H6O,acetone   1.579 -9 1.342 -9 6.955-10 1.381-11
 C3H6O,propanal  3.278-10 2.692-10 1.139-10 1.045-12
 C3H7,n-propyl   4.022-12 3.055-12 7.816-13 9.039-16
 C3H7,i-propyl   4.766-12 3.660-12 9.985-13 1.467-15
 C3H8            7.3014-8 6.4095-8 4.0000-8 1.4776-9
 C3H8O,1propanol 4.546-12 3.610-12 1.390-12 9.023-15
 C3H8O,2propanol 6.291-12 5.060-12 2.097-12 1.827-14
 C3O2            2.830-11 2.267-11 6.796-12 1.739-14
 C4H2,butadiyne  5.440-14 3.888-14 5.490-15 3.550-19
 C4H6,butadiene  2.385-10 1.919-10 6.589-11 1.413-13
 C4H6,1butyne    4.940-12 3.790-12 9.851-13 7.087-16
 C4H6,2butyne    8.082-12 6.342-12 1.879-12 2.224-15
 C4H6,cyclo-     1.625-13 1.260-13 3.487-14 3.224-17
 C4H8,1-butene   2.481-10 2.016-10 8.084-11 3.191-13
 C4H8,cis2-buten 1.384-10 1.136-10 4.833-11 2.377-13
 C4H8,tr2-butene 1.562-10 1.283-10 5.473-11 2.737-13
 C4H8,isobutene  2.024-10 1.671-10 7.348-11 4.135-13
 C4H8,cyclo-     5.336-14 4.227-14 1.463-14 3.297-17
 C4H9,n-butyl    1.629-14 1.176-14 2.496-15 8.539-19
 C4H9,i-butyl    1.150-14 8.372-15 1.864-15 7.696-19
 C4H9,s-butyl    1.115-14 8.060-15 1.718-15 5.932-19
 C4H9,t-butyl    5.354-15 3.966-15 9.746-16 5.778-19
 C4H10,n-butane  9.642-11 7.948-11 3.828-11 3.172-13
 C4H10,isobutane 3.986-11 3.313-11 1.673-11 1.670-13
 C5H6,1,3cyclo-  2.824-12 2.285-12 8.146-13 1.188-15
 C5H8,cyclo-     4.105-13 3.305-13 1.265-13 2.494-16
 C5H10,1-pentene 2.625-13 2.007-13 6.267-14 5.686-17
 C5H10,cyclo-    2.083-14 1.687-14 7.370-15 2.495-17
 C5H12,n-pentane 1.084-13 8.394-14 3.123-14 5.858-17
 C5H12,i-pentane 1.109-13 8.615-14 3.280-14 6.874-17
 CH3C(CH3)2CH3   6.742-15 5.264-15 2.070-15 5.166-18
 C6H6            5.813-11 5.064-11 2.790-11 1.288-13
 C6H5OH,phenol   4.204-14 3.388-14 1.310-14 1.766-17
 C6H10,cyclo-    2.013-16 1.546-16 5.010-17 3.208-20
 C6H12,1-hexene  2.756-16 1.982-16 4.818-17 1.003-20
 C6H14,n-hexane  1.072-16 7.802-17 2.257-17 9.664-21
 C7H7,benzyl     4.123-16 3.071-16 7.208-17 7.453-21
 C7H8            6.203-13 5.148-13 2.380-13 3.373-16
 C7H8O,cresol-mx 3.645-16 2.801-16 9.137-17 3.882-20
 C8H8,styrene    1.186-15 9.130-16 2.743-16 4.373-20
 C8H10,ethylbenz 8.356-16 6.506-16 2.308-16 7.185-20
 *H              1.028 -7 8.776 -8 3.230 -8 7.099-10
 HCO             9.519 -9 7.789 -9 2.487 -9 2.043-11
 HCCO            4.418-13 3.244-13 5.558-14 2.440-17
 *H2             4.6932-1 4.6972-1 4.5787-1 4.3185-1
 HCHO,formaldehy 5.7749-6 5.1932-6 3.0141-6 2.5287-7
 HCOOH           1.7524-6 1.5873-6 1.0620-6 1.8149-7
 H2O             1.0975-1 1.0922-1 1.1348-1 1.5297-1
 H2O2            2.020-16 1.422-16 2.182-17 2.081-20
 (HCOOH)2        3.926-16 3.055-16 1.147-16 1.685-18
 *OH             4.137-10 3.310-10 9.231-11 7.696-13
 C(gr)           0.0000 0 0.0000 0 0.0000 0 8.6822-2

  * THERMODYNAMIC PROPERTIES FITTED TO 20000.K

 NOTE. WEIGHT FRACTION OF FUEL IN TOTAL FUELS AND OF OXIDANT IN TOTAL OXIDANTS