

         NASA-GLENN CHEMICAL EQUILIBRIUM PROGRAM CEA2, FEBRUARY 5, 2004
                   BY  BONNIE MCBRIDE AND SANFORD GORDON
      REFS: NASA RP-1311, PART I, 1994 AND NASA RP-1311, PART II, 1996

 *******************************************************************************

  
 ### CEA analysis performed on Mon 29-Aug-2022 03:14:27
  
 # Problem Type: "Rocket" (Finite Area Combustor)
  
 prob case=test___________9755 ro equilibrium    fac
  
 !Contraction Ratio:
 ac/at=2
  
 # Pressure (1 value):
 p,atm= 100
 # Supersonic Area Ratio (1 value):
 supar= 8
  
 # Equivalence based on Fuel/Oxid. wt ratio (Eq 9.19*) (26 values):
 phi= 0.5, 0.6, 0.7, 0.8, 0.9, 1, 1.1, 1.2, 1.3, 1.4, 1.5, 1.6, 1.7, 1.8, 1.9, 2,
  2.1, 2.2, 2.3, 2.4, 2.5, 2.6, 2.7, 2.8, 2.9, 3
  
 # You selected the following fuels and oxidizers:
 reac
 fuel RP-1              wt%=100.0000
 oxid O2(L)             wt%=100.0000
  
 # You selected these options for output:
 # short version of output
 output short
 # Proportions of any products will be expressed as Mole Fractions.
 # Heat will be expressed as siunits
 output siunits
 # Trace variable:
 output trace=1e-16
  
 # Input prepared by this script:/var/www/sites/cearun.grc.nasa.gov/cgi-bin/CEARU
 N/prepareInputFile.cgi
  
 ### IMPORTANT:  The following line is the end of your CEA input file!
 end

              THEORETICAL ROCKET PERFORMANCE ASSUMING EQUILIBRIUM

            COMPOSITION DURING EXPANSION FROM FINITE AREA COMBUSTOR

 Pin =  1469.6 PSIA
 Ac/At =  2.0000      Pinj/Pinf =  1.051859
 CASE = test___________

             REACTANT                    WT FRACTION      ENERGY      TEMP
                                          (SEE NOTE)     KJ/KG-MOL      K  
 FUEL        RP-1                         1.0000000    -24717.700    298.150
 OXIDANT     O2(L)                        1.0000000    -12979.000     90.170

 O/F=    6.81133  %FUEL= 12.801913  R,EQ.RATIO= 0.500000  PHI,EQ.RATIO= 0.500000

                 INJECTOR  COMB END  THROAT     EXIT
 Pinj/P            1.0000   1.1125   1.8246   56.424
 P, BAR            101.33   91.077   55.533   1.7958
 T, K             3295.76  3272.20  3107.60  2013.71
 RHO, KG/CU M    1.1148 1 1.0099 1 6.5418 0 3.3765-1
 H, KJ/KG         -580.09  -630.83 -1063.78 -3416.67
 U, KJ/KG        -1489.02 -1532.69 -1912.67 -3948.52
 G, KJ/KG        -30254.7 -30138.9 -29087.5 -21575.9
 S, KJ/(KG)(K)     9.0039   9.0178   9.0178   9.0178

 M, (1/n)          30.148   30.167   30.437   31.481
 (dLV/dLP)t      -1.01774 -1.01750 -1.01403 -1.00051
 (dLV/dLT)p        1.3517   1.3497   1.2969   1.0179
 Cp, KJ/(KG)(K)    3.5900   3.5904   3.3661   1.6999
 GAMMAs            1.1398   1.1394   1.1396   1.1912
 SON VEL,M/SEC     1017.8   1013.7    983.5    795.9
 MACH NUMBER        0.000    0.314    1.000    2.993

 PERFORMANCE PARAMETERS

 Ae/At                      2.0000   1.0000   8.0000
 CSTAR, M/SEC               1497.2   1497.2   1497.2
 CF                         0.2128   0.6569   1.5909
 Ivac, M/SEC                3149.6   1846.6   2605.1
 Isp, M/SEC                  318.6    983.5   2381.8

 MOLE FRACTIONS

 *C              2.133-12 1.775-12 3.440-13 8.026-22
 *CH             3.937-13 3.192-13 5.513-14 5.540-23
 CH2             3.429-13 2.774-13 5.102-14 1.423-22
 CH3             2.718-13 2.211-13 4.586-14 7.154-22
 CH2OH           1.066-12 8.595-13 1.937-13 1.807-20
 CH3O            3.018-13 2.401-13 4.904-14 1.785-21
 CH4             3.442-14 2.784-14 6.019-15 2.745-22
 CH3OH           3.282-14 2.615-14 5.873-15 8.568-22
 *CO             3.3360-2 3.2845-2 2.5642-2 4.8563-4
 *CO2            2.4279-1 2.4348-1 2.5315-1 2.8788-1
 COOH            4.6432-6 4.1906-6 2.1606-6 1.8495-9
 CH2CO,ketene    1.111-14 8.627-15 1.382-15 1.845-24
 O(CH)2O         2.173-15 1.666-15 2.817-16 1.767-24
 HO(CO)2OH       1.535-13 1.208-13 3.357-14 3.189-19
 C2O             3.277-13 2.614-13 4.355-14 4.046-23
 C3O2            4.598-16 3.469-16 4.505-17 5.910-27
 *H              2.2889-3 2.2604-3 1.6611-3 1.3445-5
 HCO             4.469 -7 3.986 -7 1.621 -7 4.004-12
 HCCO            1.468-14 1.139-14 1.676-15 5.836-25
 HO2             5.6402-4 5.3097-4 3.6894-4 1.0246-5
 *H2             4.0528-3 4.0101-3 3.2359-3 1.0160-4
 HCHO,formaldehy 5.713 -9 4.997 -9 1.905 -9 3.661-14
 HCOOH           3.021 -7 2.677 -7 1.305 -7 9.629-11
 H2O             2.3464-1 2.3528-1 2.4329-1 2.7891-1
 H2O2            3.9466-5 3.6434-5 2.3717-5 4.7900-7
 *O              1.8045-2 1.7798-2 1.3889-2 3.6244-4
 *OH             5.8174-2 5.7387-2 4.8536-2 4.2653-3
 *O2             4.0604-1 4.0636-1 4.1020-1 4.2798-1
 O3              6.5704-6 5.9492-6 3.3425-6 2.3586-8

  * THERMODYNAMIC PROPERTIES FITTED TO 20000.K

 NOTE. WEIGHT FRACTION OF FUEL IN TOTAL FUELS AND OF OXIDANT IN TOTAL OXIDANTS

              THEORETICAL ROCKET PERFORMANCE ASSUMING EQUILIBRIUM

            COMPOSITION DURING EXPANSION FROM FINITE AREA COMBUSTOR

 Pin =  1469.6 PSIA
 Ac/At =  2.0000      Pinj/Pinf =  1.051609
 CASE = test___________

             REACTANT                    WT FRACTION      ENERGY      TEMP
                                          (SEE NOTE)     KJ/KG-MOL      K  
 FUEL        RP-1                         1.0000000    -24717.700    298.150
 OXIDANT     O2(L)                        1.0000000    -12979.000     90.170

 O/F=    5.67611  %FUEL= 14.978782  R,EQ.RATIO= 0.600000  PHI,EQ.RATIO= 0.600000

                 INJECTOR  COMB END  THROAT     EXIT
 Pinj/P            1.0000   1.1119   1.8183   52.802
 P, BAR            101.33   91.124   55.724   1.9189
 T, K             3460.88  3436.84  3280.29  2320.61
 RHO, KG/CU M    1.0300 1 9.3347 0 6.0448 0 3.1022-1
 H, KJ/KG         -609.76  -664.40 -1130.98 -3701.90
 U, KJ/KG        -1593.46 -1640.59 -2052.84 -4320.48
 G, KJ/KG        -32987.4 -32866.3 -31866.1 -25445.1
 S, KJ/(KG)(K)     9.3553   9.3696   9.3696   9.3696

 M, (1/n)          29.252   29.273   29.586   31.192
 (dLV/dLP)t      -1.02806 -1.02784 -1.02408 -1.00321
 (dLV/dLT)p        1.5257   1.5253   1.4781   1.0937
 Cp, KJ/(KG)(K)    4.5386   4.5534   4.3929   2.3632
 GAMMAs            1.1334   1.1329   1.1308   1.1517
 SON VEL,M/SEC     1055.9   1051.6   1021.0    844.0
 MACH NUMBER        0.000    0.314    1.000    2.946

 PERFORMANCE PARAMETERS

 Ae/At                      2.0000   1.0000   8.0000
 CSTAR, M/SEC               1561.2   1561.2   1561.2
 CF                         0.2117   0.6540   1.5929
 Ivac, M/SEC                3283.5   1923.9   2735.6
 Isp, M/SEC                  330.6   1021.0   2486.8

 MOLE FRACTIONS

 *C              1.966-11 1.672-11 4.450-12 7.329-18
 *CH             4.071-12 3.374-12 8.022-13 5.928-19
 CH2             3.387-12 2.797-12 6.931-13 8.937-19
 CH3             2.442-12 2.023-12 5.478-13 2.002-18
 CH2OH           6.306-12 5.162-12 1.451-12 1.245-17
 CH3O            1.954-12 1.579-12 4.073-13 1.717-18
 CH4             3.033-13 2.493-13 6.865-14 4.242-19
 CH3OH           1.974-13 1.596-13 4.405-14 4.206-19
 CH3OOH          1.374-16 1.034-16 1.977-17 1.163-23
 *CO             6.2660-2 6.2051-2 5.2802-2 5.4524-3
 *CO2            2.5084-1 2.5166-1 2.6428-1 3.2885-1
 COOH            9.0864-6 8.2548-6 4.6859-6 2.6963-8
 C2H             2.266-16 1.723-16 2.316-17 7.962-26
 C2H2,acetylene  1.211-15 9.447-16 1.621-16 6.506-24
 CH2CO,ketene    1.205-13 9.552-14 2.062-14 1.111-20
 O(CH)2O         1.593-14 1.243-14 2.717-15 2.839-21
 HO(CO)2OH       3.645-13 2.892-13 9.017-14 7.398-18
 C2O             3.351-12 2.732-12 6.271-13 3.828-19
 C3O2            5.696-15 4.397-15 8.000-16 8.511-23
 *H              4.7503-3 4.7220-3 3.8241-3 2.3713-4
 HCO             1.523 -6 1.374 -6 6.587 -7 4.651-10
 HCCO            1.697-13 1.347-13 2.741-14 6.849-21
 HO2             6.1954-4 5.8478-4 4.2163-4 2.6314-5
 *H2             7.8213-3 7.7754-3 6.7351-3 9.2905-4
 HCHO,formaldehy 2.088 -8 1.847 -8 8.259 -9 3.962-12
 HCOOH           6.2936-7 5.6106-7 2.9927-7 1.2536-9
 H2O             2.5738-1 2.5807-1 2.6727-1 3.1743-1
 H2O2            4.6488-5 4.3017-5 2.8935-5 1.1860-6
 *O              2.4884-2 2.4659-2 2.0604-2 2.3175-3
 *OH             7.5461-2 7.4666-2 6.5993-2 1.4905-2
 *O2             3.1552-1 3.1574-1 3.1803-1 3.2986-1
 O3              6.1881-6 5.6156-6 3.2747-6 5.4040-8

  * THERMODYNAMIC PROPERTIES FITTED TO 20000.K

 NOTE. WEIGHT FRACTION OF FUEL IN TOTAL FUELS AND OF OXIDANT IN TOTAL OXIDANTS

              THEORETICAL ROCKET PERFORMANCE ASSUMING EQUILIBRIUM

            COMPOSITION DURING EXPANSION FROM FINITE AREA COMBUSTOR

 Pin =  1469.6 PSIA
 Ac/At =  2.0000      Pinj/Pinf =  1.051503
 CASE = test___________

             REACTANT                    WT FRACTION      ENERGY      TEMP
                                          (SEE NOTE)     KJ/KG-MOL      K  
 FUEL        RP-1                         1.0000000    -24717.700    298.150
 OXIDANT     O2(L)                        1.0000000    -12979.000     90.170

 O/F=    4.86524  %FUEL= 17.049608  R,EQ.RATIO= 0.700000  PHI,EQ.RATIO= 0.700000

                 INJECTOR  COMB END  THROAT     EXIT
 Pinj/P            1.0000   1.1117   1.8157   51.036
 P, BAR            101.33   91.144   55.806   1.9854
 T, K             3574.28  3549.62  3396.21  2520.41
 RHO, KG/CU M    9.6673 0 8.7627 0 5.6737 0 2.9055-1
 H, KJ/KG         -637.99  -696.08 -1192.28 -3940.60
 U, KJ/KG        -1686.10 -1736.22 -2175.86 -4623.92
 G, KJ/KG        -35214.3 -35086.2 -34096.1 -28359.3
 S, KJ/(KG)(K)     9.6737   9.6884   9.6884   9.6884

 M, (1/n)          28.354   28.375   28.709   30.668
 (dLV/dLP)t      -1.03736 -1.03717 -1.03356 -1.00948
 (dLV/dLT)p        1.6740   1.6754   1.6396   1.2495
 Cp, KJ/(KG)(K)    5.3682   5.3971   5.3204   3.4973
 GAMMAs            1.1308   1.1302   1.1271   1.1256
 SON VEL,M/SEC     1088.7   1084.2   1052.9    877.0
 MACH NUMBER        0.000    0.314    1.000    2.931

 PERFORMANCE PARAMETERS

 Ae/At                      2.0000  1.00000   8.0000
 CSTAR, M/SEC               1613.1   1613.1   1613.1
 CF                         0.2113   0.6527   1.5933
 Ivac, M/SEC                3392.3   1987.1   2835.9
 Isp, M/SEC                  340.9   1052.9   2570.1

 MOLE FRACTIONS

 *C              8.754-11 7.528-11 2.363-11 1.007-15
 *CH             2.020-11 1.692-11 4.756-12 9.359-17
 CH2             1.690-11 1.410-11 4.089-12 1.128-16
 CH3             1.189-11 9.938-12 3.102-12 1.760-16
 CH2OH           2.226-11 1.836-11 5.807-12 4.822-16
 CH3O            7.311-12 5.955-12 1.738-12 7.977-17
 CH4             1.516-12 1.256-12 3.938-13 2.934-17
 CH3OH           7.304-13 5.944-13 1.833-13 1.453-17
 CH3OOH          4.820-16 3.656-16 7.874-17 4.719-22
 *CO             9.6256-2 9.5604-2 8.5287-2 2.0903-2
 *CO2            2.4962-1 2.5052-1 2.6493-1 3.5322-1
 COOH            1.4033-5 1.2791-5 7.6428-6 1.1519-7
 *C2             1.837-16 1.410-16 2.171-17 2.582-24
 C2H             2.201-15 1.698-15 2.872-16 8.309-23
 C2H2,acetylene  1.037-14 8.186-15 1.718-15 3.219-21
 CH2CO,ketene    6.587-13 5.273-13 1.337-13 1.510-18
 O(CH)2O         6.424-14 5.056-14 1.268-14 1.780-19
 HO(CO)2OH       6.436-13 5.125-13 1.703-13 4.316-17
 CH3CO,acetyl    4.356-16 3.265-16 5.709-17 3.757-23
 C2O             1.644-11 1.356-11 3.689-12 5.870-17
 C3O2            3.256-14 2.542-14 5.551-15 1.784-20
 *H              7.8144-3 7.7923-3 6.6338-3 1.1200-3
 HCO             3.5332-6 3.2052-6 1.6778-6 6.3664-9
 HCCO            9.321-13 7.478-13 1.810-13 1.241-18
 HO2             6.0854-4 5.7505-4 4.2134-4 3.8095-5
 *H2             1.2723-2 1.2677-2 1.1400-2 3.2858-3
 HCHO,formaldehy 5.250 -8 4.667 -8 2.274 -8 5.551-11
 HCOOH           1.0479-6 9.3697-7 5.2474-7 5.3736-9
 H2O             2.7671-1 2.7743-1 2.8755-1 3.4709-1
 H2O2            4.9433-5 4.5787-5 3.1256-5 1.7826-6
 *O              2.8831-2 2.8634-2 2.4726-2 5.5767-3
 *OH             8.7086-2 8.6288-2 7.7919-2 2.7612-2
 *O2             2.4028-1 2.4041-1 2.4110-1 2.4115-1
 O3              5.0587-6 4.5937-6 2.7146-6 6.4864-8

  * THERMODYNAMIC PROPERTIES FITTED TO 20000.K

 NOTE. WEIGHT FRACTION OF FUEL IN TOTAL FUELS AND OF OXIDANT IN TOTAL OXIDANTS

              THEORETICAL ROCKET PERFORMANCE ASSUMING EQUILIBRIUM

            COMPOSITION DURING EXPANSION FROM FINITE AREA COMBUSTOR

 Pin =  1469.6 PSIA
 Ac/At =  2.0000      Pinj/Pinf =  1.051465
 CASE = test___________

             REACTANT                    WT FRACTION      ENERGY      TEMP
                                          (SEE NOTE)     KJ/KG-MOL      K  
 FUEL        RP-1                         1.0000000    -24717.700    298.150
 OXIDANT     O2(L)                        1.0000000    -12979.000     90.170

 O/F=    4.25708  %FUEL= 19.021956  R,EQ.RATIO= 0.800000  PHI,EQ.RATIO= 0.800000

                 INJECTOR  COMB END  THROAT     EXIT
 Pinj/P            1.0000   1.1116   1.8146   50.252
 P, BAR            101.33   91.151   55.838   2.0164
 T, K             3653.91  3628.66  3475.93  2641.31
 RHO, KG/CU M    9.1671 0 8.3101 0 5.3807 0 2.7532-1
 H, KJ/KG         -664.87  -726.09 -1248.94 -4150.56
 U, KJ/KG        -1770.18 -1822.95 -2286.68 -4882.94
 G, KJ/KG        -37074.7 -36939.5 -35938.1 -30510.4
 S, KJ/(KG)(K)     9.9646   9.9798   9.9798   9.9798

 M, (1/n)          27.486   27.506   27.850   29.986
 (dLV/dLP)t      -1.04480 -1.04465 -1.04136 -1.01769
 (dLV/dLT)p        1.7870   1.7899   1.7664   1.4396
 Cp, KJ/(KG)(K)    6.0424   6.0835   6.0884   4.8152
 GAMMAs            1.1300   1.1294   1.1257   1.1131
 SON VEL,M/SEC     1117.6   1113.0   1080.8    902.9
 MACH NUMBER        0.000    0.314    1.000    2.924

 PERFORMANCE PARAMETERS

 Ae/At                      2.0000   1.0000   8.0000
 CSTAR, M/SEC               1657.1   1657.1   1657.1
 CF                         0.2112   0.6522   1.5934
 Ivac, M/SEC                3484.7   2041.0   2917.7
 Isp, M/SEC                  349.9   1080.8   2640.3

 MOLE FRACTIONS

 *C              2.583-10 2.234-10 7.707-11 1.672-14
 *CH             6.626-11 5.583-11 1.728-11 1.779-15
 CH2             5.755-11 4.826-11 1.536-11 2.022-15
 CH3             4.121-11 3.461-11 1.177-11 2.765-15
 CH2OH           5.877-11 4.866-11 1.652-11 4.414-15
 CH3O            2.008-11 1.642-11 5.158-12 8.064-16
 CH4             5.540-12 4.608-12 1.565-12 4.334-16
 CH3OH           2.059-12 1.682-12 5.552-13 1.333-16
 CH3OOH          1.238-15 9.427-16 2.178-16 4.251-21
 *CO             1.3199-1 1.3132-1 1.2063-1 4.6617-2
 *CO2            2.4207-1 2.4302-1 2.5839-1 3.6151-1
 COOH            1.8858-5 1.7218-5 1.0604-5 2.6090-7
 *C2             1.021-15 7.902-16 1.405-16 1.908-22
 C2H             1.233-14 9.585-15 1.858-15 5.221-21
 C2H2,acetylene  5.523-14 4.392-14 1.041-14 1.446-19
 C2H2,vinylidene 5.912-16 4.524-16 8.394-17 1.771-22
 CH2CO,ketene    2.457-12 1.978-12 5.535-13 3.073-17
 O(CH)2O         1.848-13 1.461-13 3.985-14 2.165-18
 HO(CO)2OH       9.522-13 7.599-13 2.626-13 1.209-16
 CH3CO,acetyl    2.048-15 1.544-15 3.024-16 1.260-21
 C2O             5.337-11 4.425-11 1.332-11 1.128-15
 C3O2            1.206-13 9.477-14 2.313-14 4.423-19
 *H              1.1258-2 1.1244-2 9.8433-3 2.7254-3
 HCO             6.5940-6 6.0001-6 3.3087-6 2.9685-8
 HCCO            3.372-12 2.721-12 7.310-13 2.770-17
 HO2             5.5401-4 5.2372-4 3.8572-4 4.0113-5
 *H2             1.8817-2 1.8771-2 1.7265-2 7.2751-3
 HCHO,formaldehy 1.069 -7 9.534 -8 4.894 -8 2.787-10
 HCOOH           1.5317-6 1.3717-6 7.9168-7 1.2976-8
 H2O             2.9320-1 2.9394-1 3.0485-1 3.7088-1
 H2O2            4.9075-5 4.5470-5 3.1216-5 2.0341-6
 *O              3.0009-2 2.9834-2 2.6158-2 8.0387-3
 *OH             9.3501-2 9.2704-2 8.4589-2 3.6754-2
 *O2             1.7852-1 1.7857-1 1.7784-1 1.6616-1
 O3              3.7275-6 3.3845-6 1.9990-6 5.2823-8

  * THERMODYNAMIC PROPERTIES FITTED TO 20000.K

 NOTE. WEIGHT FRACTION OF FUEL IN TOTAL FUELS AND OF OXIDANT IN TOTAL OXIDANTS

              THEORETICAL ROCKET PERFORMANCE ASSUMING EQUILIBRIUM

            COMPOSITION DURING EXPANSION FROM FINITE AREA COMBUSTOR

 Pin =  1469.6 PSIA
 Ac/At =  2.0000      Pinj/Pinf =  1.051464
 CASE = test___________

             REACTANT                    WT FRACTION      ENERGY      TEMP
                                          (SEE NOTE)     KJ/KG-MOL      K  
 FUEL        RP-1                         1.0000000    -24717.700    298.150
 OXIDANT     O2(L)                        1.0000000    -12979.000     90.170

 O/F=    3.78407  %FUEL= 20.902688  R,EQ.RATIO= 0.900000  PHI,EQ.RATIO= 0.900000

                 INJECTOR  COMB END  THROAT     EXIT
 Pinj/P            1.0000   1.1116   1.8145   49.930
 P, BAR            101.33   91.151   55.843   2.0293
 T, K             3708.80  3683.02  3529.61  2711.72
 RHO, KG/CU M    8.7593 0 7.9408 0 5.1419 0 2.6308-1
 H, KJ/KG         -690.50  -754.56 -1301.63 -4338.37
 U, KJ/KG        -1847.27 -1902.44 -2387.66 -5109.75
 G, KJ/KG        -38638.6 -38496.5 -37471.5 -32126.9
 S, KJ/(KG)(K)    10.2319  10.2476  10.2476  10.2476

 M, (1/n)          26.658   26.678   27.022   29.229
 (dLV/dLP)t      -1.04988 -1.04975 -1.04677 -1.02521
 (dLV/dLT)p        1.8600   1.8640   1.8501   1.6064
 Cp, KJ/(KG)(K)    6.5369   6.5871   6.6560   5.9951
 GAMMAs            1.1302   1.1295   1.1254   1.1077
 SON VEL,M/SEC     1143.4   1138.6   1105.6    924.4
 MACH NUMBER        0.000    0.314    1.000    2.922

 PERFORMANCE PARAMETERS

 Ae/At                      2.0000   1.0000   8.0000
 CSTAR, M/SEC               1695.2   1695.2   1695.2
 CF                         0.2112   0.6522   1.5934
 Ivac, M/SEC                3564.8   2087.9   2986.6
 Isp, M/SEC                  357.9   1105.6   2701.1

 MOLE FRACTIONS

 *C              5.865-10 5.087-10 1.856-10 9.657-14
 *CH             1.675-10 1.415-10 4.649-11 1.187-14
 CH2             1.547-10 1.301-10 4.392-11 1.402-14
 CH3             1.163-10 9.793-11 3.529-11 1.918-14
 CH2OH           1.296-10 1.075-10 3.824-11 2.009-14
 CH3O            4.546-11 3.726-11 1.228-11 3.878-15
 CH4             1.681-11 1.402-11 5.038-12 3.126-15
 CH3OH           4.922-12 4.029-12 1.394-12 6.525-16
 CH3OOH          2.604-15 1.987-15 4.799-16 1.814-20
 *CO             1.6861-1 1.6794-1 1.5740-1 7.9807-2
 *CO2            2.3005-1 2.3102-1 2.4672-1 3.5734-1
 COOH            2.3092-5 2.1105-5 1.3244-5 4.2567-7
 *C2             3.905-15 3.037-15 5.909-16 3.111-21
 C2H             4.919-14 3.841-14 8.132-15 8.374-20
 C2H2,acetylene  2.212-13 1.766-13 4.550-14 2.078-18
 C2H2,vinylidene 2.569-15 1.975-15 4.008-16 3.128-21
 CH2CO,ketene    7.271-12 5.872-12 1.758-12 2.529-16
 O(CH)2O         4.306-13 3.414-13 9.854-14 1.187-17
 HO(CO)2OH       1.251-12 9.998-13 3.548-13 2.319-16
 C2H3,vinyl      1.434-16 1.071-16 1.920-17 6.544-23
 CH3CO,acetyl    7.332-15 5.550-15 1.173-15 1.460-20
 CH3CHO,ethanal  1.002-16 7.456-17 1.501-17 1.375-22
 CH3COOH         2.124-16 1.586-16 3.523-17 7.253-22
 OHCH2COOH       2.249-16 1.639-16 3.387-17 4.618-22
 C2O             1.337-10 1.112-10 3.573-11 7.809-15
 C3O2            3.417-13 2.696-13 7.094-14 3.891-18
 *H              1.4887-2 1.4880-2 1.3237-2 4.7465-3
 HCO             1.0726-5 9.7769-6 5.5745-6 8.1350-8
 HCCO            9.419-12 7.629-12 2.194-12 2.231-16
 HO2             4.7343-4 4.4752-4 3.2868-4 3.4346-5
 *H2             2.6271-2 2.6223-2 2.4491-2 1.2921-2
 HCHO,formaldehy 1.913 -7 1.708 -7 9.086 -8 8.541-10
 HCOOH           2.0580-6 1.8449-6 1.0869-6 2.3546-8
 H2O             3.0710-1 3.0785-1 3.1949-1 3.9060-1
 H2O2            4.6089-5 4.2701-5 2.9298-5 1.9533-6
 *O              2.8854-2 2.8695-2 2.5262-2 8.6374-3
 *OH             9.5215-2 9.4423-2 8.6470-2 4.0600-2
 *O2             1.2846-1 1.2844-1 1.2655-1 1.0531-1
 O3              2.5005-6 2.2690-6 1.3243-6 3.2330-8

  * THERMODYNAMIC PROPERTIES FITTED TO 20000.K

 NOTE. WEIGHT FRACTION OF FUEL IN TOTAL FUELS AND OF OXIDANT IN TOTAL OXIDANTS

              THEORETICAL ROCKET PERFORMANCE ASSUMING EQUILIBRIUM

            COMPOSITION DURING EXPANSION FROM FINITE AREA COMBUSTOR

 Pin =  1469.6 PSIA
 Ac/At =  2.0000      Pinj/Pinf =  1.051488
 CASE = test___________

             REACTANT                    WT FRACTION      ENERGY      TEMP
                                          (SEE NOTE)     KJ/KG-MOL      K  
 FUEL        RP-1                         1.0000000    -24717.700    298.150
 OXIDANT     O2(L)                        1.0000000    -12979.000     90.170

 O/F=    3.40567  %FUEL= 22.698042  R,EQ.RATIO= 1.000000  PHI,EQ.RATIO= 1.000000

                 INJECTOR  COMB END  THROAT     EXIT
 Pinj/P            1.0000   1.1117   1.8149   49.892
 P, BAR            101.33   91.147   55.829   2.0309
 T, K             3743.32  3717.09  3561.97  2743.76
 RHO, KG/CU M    8.4219 0 7.6351 0 4.9445 0 2.5308-1
 H, KJ/KG         -714.97  -781.63 -1350.71 -4506.50
 U, KJ/KG        -1918.08 -1975.41 -2479.84 -5308.96
 G, KJ/KG        -39937.5 -39789.3 -38730.6 -33300.0
 S, KJ/(KG)(K)    10.4780  10.4941  10.4941  10.4941

 M, (1/n)          25.870   25.889   26.229   28.429
 (dLV/dLP)t      -1.05219 -1.05208 -1.04922 -1.02898
 (dLV/dLT)p        1.8887   1.8933   1.8836   1.6863
 Cp, KJ/(KG)(K)    6.8231   6.8783   6.9775   6.6496
 GAMMAs            1.1310   1.1303   1.1261   1.1063
 SON VEL,M/SEC     1166.5   1161.6   1127.6    942.2
 MACH NUMBER        0.000    0.314    1.000    2.923

 PERFORMANCE PARAMETERS

 Ae/At                      2.0000   1.0000   8.0000
 CSTAR, M/SEC               1728.4   1728.4   1728.4
 CF                         0.2112   0.6524   1.5933
 Ivac, M/SEC                3634.7   2129.0   3045.1
 Isp, M/SEC                  365.1   1127.6   2753.7

 MOLE FRACTIONS

 *C              1.107 -9 9.611-10 3.622-10 2.988-13
 *CH             3.535-10 2.992-10 1.019-10 4.355-14
 CH2             3.551-10 2.991-10 1.051-10 5.824-14
 CH3             2.881-10 2.430-10 9.146-11 8.875-14
 CH2OH           2.535-10 2.106-10 7.744-11 6.336-14
 CH3O            9.040-11 7.418-11 2.528-11 1.253-14
 CH4             4.563-11 3.810-11 1.434-11 1.639-14
 CH3OH           1.060-11 8.687-12 3.118-12 2.366-15
 CH3OOH          4.763-15 3.638-15 9.046-16 5.075-20
 *CO             2.0537-1 2.0472-1 1.9478-1 1.1883-1
 *CO2            2.1472-1 2.1569-1 2.3117-1 3.4287-1
 COOH            2.6374-5 2.4117-5 1.5305-5 5.6634-7
 *C2             1.158-14 9.025-15 1.860-15 2.173-20
 C2H             1.567-13 1.227-13 2.761-14 6.467-19
 C2H2,acetylene  7.401-13 5.924-13 1.625-13 1.702-17
 C2H2,vinylidene 9.035-15 6.964-15 1.508-15 2.805-20
 CH2CO,ketene    1.856-11 1.502-11 4.733-12 1.331-15
 O(CH)2O         8.723-13 6.928-13 2.084-13 4.284-17
 HO(CO)2OH       1.505-12 1.204-12 4.353-13 3.550-16
 C2H3,vinyl      5.664-16 4.241-16 8.150-17 6.997-22
 CH3CO,acetyl    2.204-14 1.672-14 3.743-15 9.936-20
 C2H4            1.058-16 7.925-17 1.625-17 2.405-22
 CH3CHO,ethanal  3.328-16 2.483-16 5.316-17 1.088-21
 CH3COOH         5.442-16 4.071-16 9.515-17 3.742-21
 OHCH2COOH       4.610-16 3.364-16 7.239-17 1.653-21
 C2O             2.809-10 2.342-10 7.856-11 3.072-14
 C3O2            8.117-13 6.420-13 1.785-13 1.997-17
 *H              1.8509-2 1.8505-2 1.6599-2 6.7521-3
 HCO             1.5872-5 1.4481-5 8.4435-6 1.6572-7
 HCCO            2.216-11 1.799-11 5.428-12 1.044-15
 HO2             3.8009-4 3.5910-4 2.6087-4 2.4048-5
 *H2             3.5368-2 3.5316-2 3.3375-2 2.0640-2
 HCHO,formaldehy 3.1428-7 2.8099-7 1.5345-7 2.0344-9
 HCOOH           2.6062-6 2.3378-6 1.3985-6 3.6544-8
 H2O             3.1843-1 3.1920-1 3.3151-1 4.0674-1
 H2O2            4.1065-5 3.8032-5 2.5921-5 1.6010-6
 *O              2.5880-2 2.5731-2 2.2524-2 7.3208-3
 *OH             9.2649-2 9.1866-2 8.3954-2 3.8775-2
 *O2             8.8608-2 8.8539-2 8.5779-2 5.8048-2
 O3              1.5186-6 1.3763-6 7.8348-7 1.4396-8

  * THERMODYNAMIC PROPERTIES FITTED TO 20000.K

 NOTE. WEIGHT FRACTION OF FUEL IN TOTAL FUELS AND OF OXIDANT IN TOTAL OXIDANTS

              THEORETICAL ROCKET PERFORMANCE ASSUMING EQUILIBRIUM

            COMPOSITION DURING EXPANSION FROM FINITE AREA COMBUSTOR

 Pin =  1469.6 PSIA
 Ac/At =  2.0000      Pinj/Pinf =  1.051537
 CASE = test___________

             REACTANT                    WT FRACTION      ENERGY      TEMP
                                          (SEE NOTE)     KJ/KG-MOL      K  
 FUEL        RP-1                         1.0000000    -24717.700    298.150
 OXIDANT     O2(L)                        1.0000000    -12979.000     90.170

 O/F=    3.09606  %FUEL= 24.413703  R,EQ.RATIO= 1.100000  PHI,EQ.RATIO= 1.100000

                 INJECTOR  COMB END  THROAT     EXIT
 Pinj/P            1.0000   1.1118   1.8160   50.169
 P, BAR            101.33   91.138   55.797   2.0197
 T, K             3758.96  3732.35  3574.40  2734.74
 RHO, KG/CU M    8.1425 0 7.3816 0 4.7811 0 2.4495-1
 H, KJ/KG         -738.36  -807.36 -1396.32 -4655.17
 U, KJ/KG        -1982.75 -2042.02 -2563.37 -5479.71
 G, KJ/KG        -40977.2 -40823.5 -39718.9 -33975.5
 S, KJ/(KG)(K)    10.7048  10.7214  10.7214  10.7214

 M, (1/n)          25.116   25.135   25.465   27.577
 (dLV/dLP)t      -1.05136 -1.05124 -1.04814 -1.02496
 (dLV/dLT)p        1.8684   1.8727   1.8588   1.5918
 Cp, KJ/(KG)(K)    6.8633   6.9179   6.9943   6.1682
 GAMMAs            1.1325   1.1318   1.1276   1.1097
 SON VEL,M/SEC     1187.2   1182.1   1147.1    956.6
 MACH NUMBER        0.000    0.314    1.000    2.926

 PERFORMANCE PARAMETERS

 Ae/At                      2.0000   1.0000   8.0000
 CSTAR, M/SEC               1756.9   1756.9   1756.9
 CF                         0.2115   0.6529   1.5931
 Ivac, M/SEC                3694.9   2164.5   3093.5
 Isp, M/SEC                  371.5   1147.1   2798.9

 MOLE FRACTIONS

 *C              1.806 -9 1.569 -9 5.990-10 5.631-13
 *CH             6.511-10 5.512-10 1.916-10 1.031-13
 CH2             7.288-10 6.143-10 2.221-10 1.756-13
 CH3             6.566-10 5.545-10 2.165-10 3.422-13
 CH2OH           4.561-10 3.792-10 1.431-10 1.620-13
 CH3O            1.638-10 1.345-10 4.699-11 3.182-14
 CH4             1.163-10 9.721-11 3.826-11 8.045-14
 CH3OH           2.136-11 1.752-11 6.505-12 7.668-15
 CH3OOH          7.828-15 5.981-15 1.515-15 1.054-19
 *CO             2.4180-1 2.4117-1 2.3226-1 1.6365-1
 *CO2            1.9687-1 1.9783-1 2.1254-1 3.1806-1
 COOH            2.8404-5 2.5978-5 1.6566-5 6.3203-7
 *C2             2.842-14 2.218-14 4.733-15 8.381-20
 C2H             4.266-13 3.344-13 7.858-14 3.197-18
 C2H2,acetylene  2.209-12 1.772-12 5.128-13 1.091-16
 C2H2,vinylidene 2.758-14 2.129-14 4.853-15 1.753-19
 CH2CO,ketene    4.306-11 3.491-11 1.150-11 5.749-15
 O(CH)2O         1.601-12 1.273-12 3.958-13 1.225-16
 HO(CO)2OH       1.684-12 1.348-12 4.937-13 4.580-16
 C2H3,vinyl      1.954-15 1.466-15 2.985-16 5.486-21
 CH3CO,acetyl    5.903-14 4.485-14 1.054-14 5.266-19
 C2H4            4.055-16 3.044-16 6.672-17 2.411-21
 CH3CHO,ethanal  1.001-15 7.478-16 1.693-16 7.286-21
 CH3COOH         1.278-15 9.574-16 2.343-16 1.683-20
 OHCH2COOH       8.593-16 6.277-16 1.398-16 4.904-21
 C2O             5.187-10 4.328-10 1.495-10 8.288-14
 C3O2            1.707-12 1.352-12 3.931-13 7.657-17
 *H              2.1896-2 2.1888-2 1.9674-2 8.1083-3
 HCO             2.1879-5 1.9971-5 1.1819-5 2.7559-7
 HCCO            4.619-11 3.753-11 1.174-11 3.537-15
 HO2             2.8454-4 2.6853-4 1.9084-4 1.2496-5
 *H2             4.6530-2 4.6474-2 4.4389-2 3.1628-2
 HCHO,formaldehy 4.8723-7 4.3594-7 2.4338-7 4.2686-9
 HCOOH           3.1547-6 2.8311-6 1.7143-6 5.1489-8
 H2O             3.2699-1 3.2777-1 3.4067-1 4.1847-1
 H2O2            3.4566-5 3.1987-5 2.1485-5 1.0493-6
 *O              2.1624-2 2.1481-2 1.8486-2 4.5924-3
 *OH             8.6164-2 8.5395-2 7.7375-2 3.1008-2
 *O2             5.7750-2 5.7639-2 5.4364-2 2.4466-2
 O3              8.2031-7 7.4180-7 4.0408-7 3.8369-9

  * THERMODYNAMIC PROPERTIES FITTED TO 20000.K

 NOTE. WEIGHT FRACTION OF FUEL IN TOTAL FUELS AND OF OXIDANT IN TOTAL OXIDANTS

              THEORETICAL ROCKET PERFORMANCE ASSUMING EQUILIBRIUM

            COMPOSITION DURING EXPANSION FROM FINITE AREA COMBUSTOR

 Pin =  1469.6 PSIA
 Ac/At =  2.0000      Pinj/Pinf =  1.051621
 CASE = test___________

             REACTANT                    WT FRACTION      ENERGY      TEMP
                                          (SEE NOTE)     KJ/KG-MOL      K  
 FUEL        RP-1                         1.0000000    -24717.700    298.150
 OXIDANT     O2(L)                        1.0000000    -12979.000     90.170

 O/F=    2.83806  %FUEL= 26.054862  R,EQ.RATIO= 1.200000  PHI,EQ.RATIO= 1.200000

                 INJECTOR  COMB END  THROAT     EXIT
 Pinj/P            1.0000   1.1120   1.8179   51.116
 P, BAR            101.33   91.122   55.738   1.9823
 T, K             3755.10  3728.16  3565.64  2660.57
 RHO, KG/CU M    7.9147 0 7.1745 0 4.6479 0 2.3848-1
 H, KJ/KG         -760.72  -831.83 -1438.46 -4783.27
 U, KJ/KG        -2040.93 -2101.90 -2637.67 -5614.50
 G, KJ/KG        -41741.9 -41582.9 -40413.1 -33864.9
 S, KJ/(KG)(K)    10.9135  10.9306  10.9306  10.9306

 M, (1/n)          24.388   24.406   24.722   26.613
 (dLV/dLP)t      -1.04710 -1.04694 -1.04314 -1.01248
 (dLV/dLT)p        1.7953   1.7984   1.7697   1.3032
 Cp, KJ/(KG)(K)    6.6185   6.6653   6.6484   4.2680
 GAMMAs            1.1350   1.1343   1.1303   1.1259
 SON VEL,M/SEC     1205.4   1200.2   1164.3    967.4
 MACH NUMBER        0.000    0.314    1.000    2.932

 PERFORMANCE PARAMETERS

 Ae/At                      2.0000   1.0000   8.0000
 CSTAR, M/SEC               1780.6   1780.6   1780.6
 CF                         0.2118   0.6539   1.5930
 Ivac, M/SEC                3745.0   2194.3   3129.4
 Isp, M/SEC                  377.1   1164.2   2836.4

 MOLE FRACTIONS

 *C              2.595 -9 2.251 -9 8.538-10 5.531-13
 *CH             1.069 -9 9.046-10 3.158-10 1.452-13
 CH2             1.373 -9 1.157 -9 4.267-10 3.952-13
 CH3             1.420 -9 1.200 -9 4.858-10 1.281-12
 CH2OH           7.706-10 6.410-10 2.470-10 3.564-13
 CH3O            2.763-10 2.269-10 8.079-11 6.611-14
 CH4             2.881-10 2.413-10 9.986-11 4.810-13
 CH3OH           4.134-11 3.395-11 1.305-11 2.602-14
 CH3OOH          1.175-14 8.971-15 2.293-15 1.566-19
 *CO             2.7747-1 2.7689-1 2.6944-1 2.1533-1
 *CO2            1.7712-1 1.7804-1 1.9140-1 2.8080-1
 COOH            2.8933-5 2.6455-5 1.6827-5 5.5226-7
 *C2             5.983-14 4.666-14 1.010-14 1.678-19
 C2H             1.031-12 8.088-13 1.962-13 1.083-17
 C2H2,acetylene  6.149-12 4.939-12 1.506-12 6.896-16
 C2H2,vinylidene 7.635-14 5.900-14 1.406-14 8.946-19
 CH2CO,ketene    9.402-11 7.632-11 2.625-11 2.458-14
 O(CH)2O         2.730-12 2.173-12 6.946-13 3.032-16
 HO(CO)2OH       1.763-12 1.411-12 5.205-13 4.853-16
 C2H3,vinyl      6.184-15 4.645-15 9.990-16 3.963-20
 CH3CO,acetyl    1.465-13 1.115-13 2.744-14 2.628-18
 C2H4            1.473-15 1.108-15 2.607-16 2.895-20
 CH3CHO,ethanal  2.844-15 2.130-15 5.114-16 5.467-20
 CH3COOH         2.846-15 2.135-15 5.483-16 8.226-20
 OHCH2COOH       1.493-15 1.092-15 2.509-16 1.352-20
 C2O             8.634-10 7.205-10 2.531-10 1.532-13
 C3O2            3.287-12 2.608-12 7.876-13 2.504-16
 *H              2.4747-2 2.4725-2 2.2120-2 7.6823-3
 HCO             2.8448-5 2.5969-5 1.5497-5 3.7048-7
 HCCO            8.790-11 7.147-11 2.298-11 9.295-15
 HO2             1.9562-4 1.8424-4 1.2593-4 3.5634-6
 *H2             6.0349-2 6.0292-2 5.8230-2 4.8868-2
 HCHO,formaldehy 7.2500-7 6.4906-7 3.6980-7 8.5050-9
 HCOOH           3.6780-6 3.3017-6 2.0187-6 6.7050-8
 H2O             3.3232-1 3.3311-1 3.4639-1 4.2207-1
 H2O2            2.7197-5 2.5130-5 1.6429-5 4.4214-7
 *O              1.6663-2 1.6522-2 1.3753-2 1.6379-3
 *OH             7.6175-2 7.5419-2 6.7129-2 1.7885-2
 *O2             3.4875-2 3.4736-2 3.1363-2 5.7273-3
 O3              3.825 -7 3.446 -7 1.742 -7 3.533-10

  * THERMODYNAMIC PROPERTIES FITTED TO 20000.K

 NOTE. WEIGHT FRACTION OF FUEL IN TOTAL FUELS AND OF OXIDANT IN TOTAL OXIDANTS

              THEORETICAL ROCKET PERFORMANCE ASSUMING EQUILIBRIUM

            COMPOSITION DURING EXPANSION FROM FINITE AREA COMBUSTOR

 Pin =  1469.6 PSIA
 Ac/At =  2.0000      Pinj/Pinf =  1.051762
 CASE = test___________

             REACTANT                    WT FRACTION      ENERGY      TEMP
                                          (SEE NOTE)     KJ/KG-MOL      K  
 FUEL        RP-1                         1.0000000    -24717.700    298.150
 OXIDANT     O2(L)                        1.0000000    -12979.000     90.170

 O/F=    2.61974  %FUEL= 27.626269  R,EQ.RATIO= 1.300000  PHI,EQ.RATIO= 1.300000

                 INJECTOR  COMB END  THROAT     EXIT
 Pinj/P            1.0000   1.1123   1.8213   53.463
 P, BAR            101.33   91.095   55.635   1.8952
 T, K             3729.38  3702.09  3532.11  2483.78
 RHO, KG/CU M    7.7369 0 7.0122 0 4.5439 0 2.3371-1
 H, KJ/KG         -782.14  -855.08 -1477.00 -4886.28
 U, KJ/KG        -2091.78 -2154.18 -2701.38 -5697.22
 G, KJ/KG        -42196.4 -42031.9 -40763.3 -32512.5
 S, KJ/(KG)(K)    11.1049  11.1226  11.1226  11.1226

 M, (1/n)          23.677   23.694   23.986   25.466
 (dLV/dLP)t      -1.03967 -1.03944 -1.03465 -1.00322
 (dLV/dLT)p        1.6727   1.6737   1.6223   1.0818
 Cp, KJ/(KG)(K)    6.0813   6.1130   5.9385   2.6583
 GAMMAs            1.1388   1.1381   1.1350   1.1635
 SON VEL,M/SEC     1221.2   1216.0   1178.9    971.3
 MACH NUMBER        0.000    0.314    1.000    2.950

 PERFORMANCE PARAMETERS

 Ae/At                      2.0000   1.0000   8.0000
 CSTAR, M/SEC               1798.5   1798.5   1798.5
 CF                         0.2124   0.6555   1.5930
 Ivac, M/SEC                3783.2   2217.5   3148.1
 Isp, M/SEC                  382.0   1178.9   2865.0

 MOLE FRACTIONS

 *C              3.277 -9 2.835 -9 1.041 -9 1.715-13
 *CH             1.573 -9 1.328 -9 4.565-10 8.226-14
 CH2             2.402 -9 2.024 -9 7.535-10 5.446-13
 CH3             2.972 -9 2.514 -9 1.057 -9 4.775-12
 CH2OH           1.237 -9 1.029 -9 4.034-10 6.190-13
 CH3O            4.381-10 3.597-10 1.297-10 9.920-14
 CH4             7.134-10 5.988-10 2.639-10 4.381-12
 CH3OH           7.822-11 6.431-11 2.572-11 1.005-13
 CH3OOH          1.614-14 1.231-14 3.136-15 1.304-19
 *CO             3.1188-1 3.1138-1 3.0575-1 2.7016-1
 *CO2            1.5606-1 1.5691-1 1.6833-1 2.3322-1
 COOH            2.7790-5 2.5389-5 1.5939-5 3.1730-7
 *C2             1.093-13 8.505-14 1.824-14 1.099-19
 C2H             2.260-12 1.772-12 4.381-13 2.008-17
 C2H2,acetylene  1.645-11 1.324-11 4.271-12 4.671-15
 C2H2,vinylidene 1.968-13 1.522-13 3.777-14 3.447-18
 CH2CO,ketene    1.978-10 1.608-10 5.793-11 1.124-13
 O(CH)2O         4.387-12 3.493-12 1.144-12 6.213-16
 HO(CO)2OH       1.727-12 1.382-12 5.086-13 3.821-16
 C2H3,vinyl      1.852-14 1.393-14 3.169-15 2.705-19
 CH3CO,acetyl    3.458-13 2.634-13 6.798-14 1.283-17
 C2H4            5.271-15 3.979-15 1.018-15 5.338-19
 CH3CHO,ethanal  7.887-15 5.919-15 1.522-15 5.532-19
 CH3COOH         6.156-15 4.629-15 1.256-15 5.102-19
 OHCH2COOH       2.453-15 1.795-15 4.254-16 3.518-20
 C2O             1.310 -9 1.092 -9 3.849-10 1.532-13
 C3O2            5.922-12 4.704-12 1.470-12 6.893-16
 *H              2.6661-2 2.6607-2 2.3467-2 4.7243-3
 HCO             3.5044-5 3.1976-5 1.9090-5 3.4966-7
 HCCO            1.552-10 1.262-10 4.139-11 1.664-14
 HO2             1.2073-4 1.1329-4 7.2446-5 3.3238-7
 *H2             7.7578-2 7.7533-2 7.5840-2 7.6983-2
 HCHO,formaldehy 1.0461-6 9.3699-7 5.4456-7 1.6045-8
 HCOOH           4.1420-6 3.7189-6 2.2892-6 7.8158-8
 H2O             3.3362-1 3.3440-1 3.4765-1 4.0864-1
 H2O2            1.9666-5 1.8123-5 1.1302-5 8.1664-8
 (HCOOH)2        1.096-16 7.994-17 1.931-17 1.359-21
 *O              1.1628-2 1.1492-2 9.0201-3 2.0535-4
 *OH             6.3338-2 6.2593-2 5.3939-2 5.6205-3
 *O2             1.9027-2 1.8883-2 1.5877-2 4.4759-4
 O3              1.476 -7 1.321 -7 5.901 -8 4.539-12

  * THERMODYNAMIC PROPERTIES FITTED TO 20000.K

 NOTE. WEIGHT FRACTION OF FUEL IN TOTAL FUELS AND OF OXIDANT IN TOTAL OXIDANTS

              THEORETICAL ROCKET PERFORMANCE ASSUMING EQUILIBRIUM

            COMPOSITION DURING EXPANSION FROM FINITE AREA COMBUSTOR

 Pin =  1469.6 PSIA
 Ac/At =  2.0000      Pinj/Pinf =  1.051993
 CASE = test___________

             REACTANT                    WT FRACTION      ENERGY      TEMP
                                          (SEE NOTE)     KJ/KG-MOL      K  
 FUEL        RP-1                         1.0000000    -24717.700    298.150
 OXIDANT     O2(L)                        1.0000000    -12979.000     90.170

 O/F=    2.43262  %FUEL= 29.132277  R,EQ.RATIO= 1.400000  PHI,EQ.RATIO= 1.400000

                 INJECTOR  COMB END  THROAT     EXIT
 Pinj/P            1.0000   1.1128   1.8269   56.909
 P, BAR            101.33   91.052   55.462   1.7805
 T, K             3678.43  3650.68  3468.94  2247.07
 RHO, KG/CU M    7.6108 0 6.8960 0 4.4702 0 2.3115-1
 H, KJ/KG         -802.67  -877.15 -1511.73 -4945.83
 U, KJ/KG        -2134.00 -2197.51 -2752.44 -5716.10
 G, KJ/KG        -42293.7 -42122.1 -40703.4 -30333.0
 S, KJ/(KG)(K)    11.2795  11.2979  11.2979  11.2979

 M, (1/n)          22.973   22.989   23.247   24.256
 (dLV/dLP)t      -1.03033 -1.03002 -1.02454 -1.00074
 (dLV/dLT)p        1.5195   1.5182   1.4468   1.0198
 Cp, KJ/(KG)(K)    5.3271   5.3397   5.0028   2.1673
 GAMMAs            1.1449   1.1443   1.1430   1.1958
 SON VEL,M/SEC     1234.6   1229.2   1190.9    959.7
 MACH NUMBER        0.000    0.314    1.000    2.999

 PERFORMANCE PARAMETERS

 Ae/At                      2.0000   1.0000   8.0000
 CSTAR, M/SEC               1809.3   1809.3   1809.3
 CF                         0.2133   0.6582   1.5910
 Ivac, M/SEC                3806.9   2232.7   3146.2
 Isp, M/SEC                  386.0   1190.9   2878.6

 MOLE FRACTIONS

 *C              3.587 -9 3.087 -9 1.055 -9 1.629-14
 *CH             2.055 -9 1.728 -9 5.673-10 1.740-14
 CH2             3.904 -9 3.283 -9 1.216 -9 4.018-13
 CH3             6.079 -9 5.148 -9 2.254 -9 1.462-11
 CH2OH           1.888 -9 1.570 -9 6.218-10 7.566-13
 CH3O            6.527-10 5.354-10 1.935-10 9.696-14
 CH4             1.796 -9 1.513 -9 7.225-10 4.795-11
 CH3OH           1.460-10 1.202-10 5.031-11 3.751-13
 CH3OOH          2.016-14 1.534-14 3.814-15 5.762-20
 *CO             3.4428-1 3.4389-1 3.4023-1 3.1483-1
 *CO2            1.3449-1 1.3523-1 1.4429-1 1.9076-1
 COOH            2.4988-5 2.2787-5 1.3903-5 1.2366-7
 *C2             1.721-13 1.334-13 2.730-14 2.092-20
 C2H             4.507-12 3.528-12 8.736-13 1.711-17
 C2H2,acetylene  4.303-11 3.470-11 1.191-11 2.660-14
 C2H2,vinylidene 4.779-13 3.696-13 9.490-14 7.970-18
 CH2CO,ketene    4.066-10 3.312-10 1.255-10 4.596-13
 O(CH)2O         6.681-12 5.321-12 1.774-12 9.594-16
 HO(CO)2OH       1.575-12 1.259-12 4.569-13 2.351-16
 C2H3,vinyl      5.331-14 4.016-14 9.686-15 1.330-18
 CH3CO,acetyl    7.855-13 5.993-13 1.624-13 5.009-17
 C2H4            1.908-14 1.446-14 4.106-15 1.090-17
 CH3CHO,ethanal  2.176-14 1.639-14 4.569-15 5.861-18
 CH3COOH         1.313-14 9.898-15 2.864-15 3.357-18
 OHCH2COOH       3.832-15 2.806-15 6.840-16 7.893-20
 C2O             1.810 -9 1.506 -9 5.217-10 7.704-14
 C3O2            1.010-11 8.027-12 2.583-12 1.427-15
 *H              2.7164-2 2.7056-2 2.3182-2 1.8572-3
 HCO             4.0803-5 3.7188-5 2.1948-5 2.2206-7
 HCCO            2.555-10 2.076-10 6.863-11 1.798-14
 HO2             6.5037-5 6.0648-5 3.4821-5 1.1821-8
 *H2             9.8997-2 9.8995-2 9.8230-2 1.1454-1
 HCHO,formaldehy 1.4694-6 1.3169-6 7.7983-7 2.6218-8
 HCOOH           4.5025-6 4.0421-6 2.4939-6 8.0366-8
 H2O             3.2981-1 3.3057-1 3.4296-1 3.7697-1
 H2O2            1.2790-5 1.1732-5 6.7690-6 7.3343-9
 (HCOOH)2        1.310-16 9.553-17 2.327-17 1.737-21
 *O              7.1750-3 7.0513-3 5.0256-3 1.0175-5
 *OH             4.8811-2 4.8083-2 3.9243-2 1.0184-3
 *O2             9.1161-3 8.9908-3 6.7581-3 1.4050-5
 O3              4.488 -8 3.971 -8 1.457 -8 1.118-14

  * THERMODYNAMIC PROPERTIES FITTED TO 20000.K

 NOTE. WEIGHT FRACTION OF FUEL IN TOTAL FUELS AND OF OXIDANT IN TOTAL OXIDANTS

              THEORETICAL ROCKET PERFORMANCE ASSUMING EQUILIBRIUM

            COMPOSITION DURING EXPANSION FROM FINITE AREA COMBUSTOR

 Pin =  1469.6 PSIA
 Ac/At =  2.0000      Pinj/Pinf =  1.052337
 CASE = test___________

             REACTANT                    WT FRACTION      ENERGY      TEMP
                                          (SEE NOTE)     KJ/KG-MOL      K  
 FUEL        RP-1                         1.0000000    -24717.700    298.150
 OXIDANT     O2(L)                        1.0000000    -12979.000     90.170

 O/F=    2.27044  %FUEL= 30.576886  R,EQ.RATIO= 1.500000  PHI,EQ.RATIO= 1.500000

                 INJECTOR  COMB END  THROAT     EXIT
 Pinj/P            1.0000   1.1136   1.8355   60.370
 P, BAR            101.33   90.988   55.203   1.6784
 T, K             3599.73  3571.31  3373.09  2020.95
 RHO, KG/CU M    7.5398 0 6.8289 0 4.4289 0 2.3109-1
 H, KJ/KG         -822.36  -898.05 -1542.17 -4953.55
 U, KJ/KG        -2166.22 -2230.44 -2788.60 -5679.85
 G, KJ/KG        -41994.9 -41813.5 -40186.8 -28107.0
 S, KJ/(KG)(K)    11.4377  11.4567  11.4567  11.4567

 M, (1/n)          22.272   22.286   22.501   23.135
 (dLV/dLP)t      -1.02118 -1.02084 -1.01558 -1.00018
 (dLV/dLT)p        1.3682   1.3652   1.2890   1.0051
 Cp, KJ/(KG)(K)    4.5230   4.5189   4.0990   2.0498
 GAMMAs            1.1538   1.1534   1.1550   1.2150
 SON VEL,M/SEC     1245.2   1239.7   1199.8    939.4
 MACH NUMBER        0.000    0.314    1.000    3.060

 PERFORMANCE PARAMETERS

 Ae/At                      2.0000   1.0000   8.0000
 CSTAR, M/SEC               1811.9   1811.9   1811.9
 CF                         0.2147   0.6622   1.5864
 Ivac, M/SEC                3813.6   2238.7   3127.1
 Isp, M/SEC                  389.1   1199.8   2874.4

 MOLE FRACTIONS

 *C              3.325 -9 2.836 -9 8.560-10 8.223-16
 *CH             2.336 -9 1.951 -9 5.866-10 2.094-15
 CH2             5.821 -9 4.882 -9 1.756 -9 1.948-13
 CH3             1.212 -8 1.027 -8 4.671 -9 3.518-11
 CH2OH           2.722 -9 2.260 -9 8.928-10 7.126-13
 CH3O            9.055-10 7.412-10 2.638-10 7.100-14
 CH4             4.624 -9 3.915 -9 2.057 -9 4.878-10
 CH3OH           2.684-10 2.215-10 9.728-11 1.230-12
 CH3OOH          2.252-14 1.706-14 4.022-15 1.785-20
 *CO             3.7368-1 3.7339-1 3.7143-1 3.4572-1
 *CO2            1.1350-1 1.1411-1 1.2080-1 1.6043-1
 COOH            2.0868-5 1.8969-5 1.1030-5 4.0561-8
 *C2             2.291-13 1.761-13 3.268-14 1.933-21
 C2H             8.096-12 6.315-12 1.521-12 8.611-18
 C2H2,acetylene  1.104-10 8.921-11 3.261-11 1.164-13
 C2H2,vinylidene 1.087-12 8.403-13 2.198-13 1.200-17
 CH2CO,ketene    8.188-10 6.684-10 2.665-10 1.568-12
 O(CH)2O         9.619-12 7.656-12 2.572-12 1.207-15
 HO(CO)2OH       1.334-12 1.064-12 3.750-13 1.347-16
 C2H3,vinyl      1.474-13 1.112-13 2.825-14 4.549-18
 CH3CO,acetyl    1.717-12 1.312-12 3.719-13 1.517-16
 C2H4            7.037-14 5.364-14 1.715-14 1.857-16
 C2H4O,ethylen-o 1.096-16 8.023-17 1.925-17 4.390-21
 CH3CHO,ethanal  6.005-14 4.540-14 1.387-14 5.340-17
 CH3COOH         2.773-14 2.097-14 6.516-15 2.032-17
 OHCH2COOH       5.679-15 4.160-15 1.037-15 1.567-19
 C2H5            1.712-16 1.215-16 2.669-17 1.211-20
 C2O             2.257 -9 1.871 -9 6.194-10 2.581-14
 *C3             1.177-16 8.416-17 1.211-17 6.734-25
 C3O2            1.635-11 1.300-11 4.269-12 2.372-15
 *H              2.5881-2 2.5694-2 2.0958-2 5.7204-4
 HCO             4.4599-5 4.0554-5 2.3268-5 1.1154-7
 HCCO            3.899-10 3.163-10 1.034-10 1.375-14
 HO2             2.983 -5 2.754 -5 1.350 -5 2.871-10
 *H2             1.2504-1 1.2512-1 1.2588-1 1.5600-1
 HCHO,formaldehy 2.0058-6 1.7981-6 1.0806-6 3.7379-8
 HCOOH           4.7114-6 4.2273-6 2.5975-6 7.7310-8
 H2O             3.1985-1 3.2052-1 3.3091-1 3.3713-1
 H2O2            7.332 -6 6.676 -6 3.431 -6 4.925-10
 (HCOOH)2        1.463-16 1.065-16 2.591-17 2.074-21
 *O              3.8279-3 3.7282-3 2.3024-3 3.4023-7
 *OH             3.4362-2 3.3675-2 2.5318-2 1.4469-4
 *O2             3.7477-3 3.6602-3 2.3426-3 3.1601-7
 O3              1.031 -8 8.965 -9 2.473 -9 1.493-17

  * THERMODYNAMIC PROPERTIES FITTED TO 20000.K

 NOTE. WEIGHT FRACTION OF FUEL IN TOTAL FUELS AND OF OXIDANT IN TOTAL OXIDANTS

              THEORETICAL ROCKET PERFORMANCE ASSUMING EQUILIBRIUM

            COMPOSITION DURING EXPANSION FROM FINITE AREA COMBUSTOR

 Pin =  1469.6 PSIA
 Ac/At =  2.0000      Pinj/Pinf =  1.052784
 CASE = test___________

             REACTANT                    WT FRACTION      ENERGY      TEMP
                                          (SEE NOTE)     KJ/KG-MOL      K  
 FUEL        RP-1                         1.0000000    -24717.700    298.150
 OXIDANT     O2(L)                        1.0000000    -12979.000     90.170

 O/F=    2.12854  %FUEL= 31.963777  R,EQ.RATIO= 1.600000  PHI,EQ.RATIO= 1.600000

                 INJECTOR  COMB END  THROAT     EXIT
 Pinj/P            1.0000   1.1146   1.8464   63.432
 P, BAR            101.33   90.904   54.877   1.5974
 T, K             3494.02  3464.75  3247.59  1823.51
 RHO, KG/CU M    7.5256 0 6.8124 0 4.4217 0 2.3323-1
 H, KJ/KG         -841.26  -917.75 -1567.49 -4919.68
 U, KJ/KG        -2187.67 -2252.13 -2808.58 -5604.57
 G, KJ/KG        -41300.0 -41106.4 -39237.1 -26071.1
 S, KJ/(KG)(K)    11.5794  11.5993  11.5993  11.5993

 M, (1/n)          21.577   21.589   21.757   22.137
 (dLV/dLP)t      -1.01389 -1.01358 -1.00929 -1.00004
 (dLV/dLT)p        1.2459   1.2423   1.1761   1.0013
 Cp, KJ/(KG)(K)    3.8338   3.8201   3.4138   2.0296
 GAMMAs            1.1657   1.1655   1.1703   1.2277
 SON VEL,M/SEC     1252.8   1247.1   1205.2    917.0
 MACH NUMBER        0.000    0.314    1.000    3.115

 PERFORMANCE PARAMETERS

 Ae/At                      2.0000   1.0000   8.0000
 CSTAR, M/SEC               1806.1   1806.1   1806.1
 CF                         0.2166   0.6673   1.5813
 Ivac, M/SEC                3802.8   2235.0   3095.8
 Isp, M/SEC                  391.1   1205.2   2856.0

 MOLE FRACTIONS

 *C              2.561 -9 2.155 -9 5.433-10 2.935-17
 *CH             2.269 -9 1.876 -9 4.925-10 1.831-16
 CH2             7.837 -9 6.538 -9 2.214 -9 7.315-14
 CH3             2.324 -8 1.972 -8 9.202 -9 7.138-11
 CH2OH           3.663 -9 3.034 -9 1.174 -9 5.719-13
 CH3O            1.155 -9 9.420-10 3.232-10 4.392-14
 CH4             1.2049-8 1.0264-8 5.9712-9 4.5552-9
 CH3OH           4.818-10 3.984-10 1.829-10 3.655-12
 CH3OOH          2.218-14 1.668-14 3.614-15 4.579-21
 *CO             3.9910-1 3.9889-1 3.9792-1 3.6659-1
 *CO2            9.4295-2 9.4786-2 9.9632-2 1.3970-1
 COOH            1.6139-5 1.4601-5 7.9500-6 1.2333-8
 *C2             2.523-13 1.916-13 3.041-14 1.184-22
 C2H             1.287-11 9.982-12 2.252-12 3.169-18
 C2H2,acetylene  2.744-10 2.224-10 8.574-11 4.223-13
 C2H2,vinylidene 2.280-12 1.759-12 4.571-13 1.371-17
 CH2CO,ketene    1.605 -9 1.313 -9 5.479-10 4.732-12
 O(CH)2O         1.302-11 1.035-11 3.457-12 1.359-15
 HO(CO)2OH       1.051-12 8.355-13 2.830-13 7.760-17
 C2H3,vinyl      3.847-13 2.904-13 7.641-14 1.215-17
 CH3CO,acetyl    3.573-12 2.732-12 8.004-13 3.897-16
 C2H4            2.611-13 2.003-13 7.227-14 2.701-15
 C2H4O,ethylen-o 2.647-16 1.941-16 4.899-17 1.678-20
 CH3CHO,ethanal  1.641-13 1.246-13 4.169-14 4.313-16
 CH3COOH         5.760-14 4.372-14 1.461-14 1.159-16
 OHCH2COOH       7.944-15 5.817-15 1.472-15 2.949-19
 C2H5            6.625-16 4.728-16 1.149-16 1.286-19
 C2O             2.517 -9 2.074 -9 6.355-10 6.915-15
 *C3             2.087-16 1.480-16 1.940-17 1.458-25
 C3H3,2-propynl  1.922-16 1.333-16 2.557-17 2.094-21
 C3O2            2.509-11 1.994-11 6.605-12 3.501-15
 *H              2.2838-2 2.2562-2 1.7141-2 1.5347-4
 HCO             4.5454-5 4.1181-5 2.2545-5 4.9105-8
 HCCO            5.464-10 4.416-10 1.395-10 8.608-15
 HO2             1.153 -5 1.050 -5 4.199 -6 5.888-12
 *H2             1.5528-1 1.5548-1 1.5798-1 1.9817-1
 HCHO,formaldehy 2.6452-6 2.3713-6 1.4354-6 4.8844-8
 HCOOH           4.7366-6 4.2456-6 2.5823-6 7.2579-8
 H2O             3.0342-1 3.0393-1 3.1137-1 2.9537-1
 H2O2            3.671 -6 3.308 -6 1.463 -6 2.904-11
 (HCOOH)2        1.522-16 1.107-16 2.665-17 2.476-21
 *O              1.7476-3 1.6805-3 8.6114-4 9.4408-9
 *OH             2.1932-2 2.1335-2 1.4398-2 1.8223-5
 *O2             1.3136-3 1.2656-3 6.6141-4 6.2024-9
 O3              1.768 -9 1.500 -9 2.885-10 1.550-20

  * THERMODYNAMIC PROPERTIES FITTED TO 20000.K

 NOTE. WEIGHT FRACTION OF FUEL IN TOTAL FUELS AND OF OXIDANT IN TOTAL OXIDANTS

              THEORETICAL ROCKET PERFORMANCE ASSUMING EQUILIBRIUM

            COMPOSITION DURING EXPANSION FROM FINITE AREA COMBUSTOR

 Pin =  1469.6 PSIA
 Ac/At =  2.0000      Pinj/Pinf =  1.053285
 CASE = test___________

             REACTANT                    WT FRACTION      ENERGY      TEMP
                                          (SEE NOTE)     KJ/KG-MOL      K  
 FUEL        RP-1                         1.0000000    -24717.700    298.150
 OXIDANT     O2(L)                        1.0000000    -12979.000     90.170

 O/F=    2.00333  %FUEL= 33.296340  R,EQ.RATIO= 1.700000  PHI,EQ.RATIO= 1.700000

                 INJECTOR  COMB END  THROAT     EXIT
 Pinj/P            1.0000   1.1158   1.8583   66.056
 P, BAR            101.33   90.811   54.527   1.5339
 T, K             3366.21  3336.09  3101.17  1652.95
 RHO, KG/CU M    7.5656 0 6.8450 0 4.4477 0 2.3720-1
 H, KJ/KG         -859.42  -936.22 -1587.07 -4856.48
 U, KJ/KG        -2198.71 -2262.91 -2813.04 -5503.15
 G, KJ/KG        -40261.5 -40054.5 -37950.8 -24238.7
 S, KJ/(KG)(K)    11.7051  11.7258  11.7258  11.7258

 M, (1/n)          20.898   20.908   21.032   21.253
 (dLV/dLP)t      -1.00884 -1.00858 -1.00540 -1.00001
 (dLV/dLT)p        1.1596   1.1563   1.1050   1.0003
 Cp, KJ/(KG)(K)    3.3234   3.3063   2.9610   2.0399
 GAMMAs            1.1794   1.1796   1.1871   1.2375
 SON VEL,M/SEC     1256.8   1251.0   1206.4    894.6
 MACH NUMBER        0.000    0.313    1.000    3.161

 PERFORMANCE PARAMETERS

 Ae/At                      2.0000   1.0000   8.0000
 CSTAR, M/SEC               1792.9   1792.9   1792.9
 CF                         0.2186   0.6728   1.5770
 Ivac, M/SEC                3777.0   2222.6   3056.1
 Isp, M/SEC                  391.9   1206.4   2827.4

 MOLE FRACTIONS

 *C              1.631 -9 1.349 -9 2.715-10 8.054-19
 *CH             1.869 -9 1.524 -9 3.358-10 1.261-17
 CH2             9.417 -9 7.797 -9 2.416 -9 2.286-14
 CH3             4.225 -8 3.586 -8 1.693 -8 1.294-10
 CH2OH           4.563 -9 3.766 -9 1.403 -9 4.113-13
 CH3O            1.343 -9 1.090 -9 3.538-10 2.422-14
 CH4             3.1283-8 2.6833-8 1.7261-8 4.0819-8
 CH3OH           8.347-10 6.916-10 3.299-10 1.027-11
 CH3OOH          1.916-14 1.427-14 2.774-15 1.028-21
 *CO             4.2004-1 4.1988-1 4.1913-1 3.8085-1
 *CO2            7.7762-2 7.8164-2 8.1900-2 1.2547-1
 COOH            1.1614-5 1.0444-5 5.2666-6 3.5536-9
 *C2             2.278-13 1.701-13 2.197-14 5.375-24
 C2H             1.790-11 1.376-11 2.808-12 9.385-19
 C2H2,acetylene  6.518-10 5.292-10 2.121-10 1.368-12
 C2H2,vinylidene 4.339-12 3.335-12 8.379-13 1.303-17
 CH2CO,ketene    3.035 -9 2.487 -9 1.077 -9 1.334-11
 O(CH)2O         1.653-11 1.311-11 4.304-12 1.437-15
 HO(CO)2OH       7.785-13 6.165-13 2.003-13 4.563-17
 C2H3,vinyl      9.314-13 7.028-13 1.873-13 2.771-17
 CH3CO,acetyl    6.992-12 5.347-12 1.596-12 9.087-16
 C2H4            9.535-13 7.370-13 2.977-13 3.614-14
 C2H4O,ethylen-o 6.017-16 4.417-16 1.157-16 5.822-20
 CH3CHO,ethanal  4.371-13 3.338-13 1.216-13 3.285-15
 CH3COOH         1.167-13 8.897-14 3.192-14 6.531-16
 OHCH2COOH       1.047-14 7.662-15 1.956-15 5.480-19
 C2H5            2.447-15 1.755-15 4.647-16 1.204-18
 C2H6            3.286-16 2.380-16 8.479-17 4.042-17
 C2O             2.505 -9 2.046 -9 5.651-10 1.587-15
 *C3             3.113-16 2.180-16 2.485-17 2.342-26
 C3H3,2-propynl  7.160-16 4.979-16 1.013-16 1.289-20
 C3O2            3.650-11 2.898-11 9.575-12 4.869-15
 *H              1.8605-2 1.8259-2 1.2694-2 3.7005-5
 HCO             4.3118-5 3.8869-5 1.9999-5 1.9678-8
 HCCO            6.989-10 5.620-10 1.678-10 4.716-15
 HO2             3.793 -6 3.393 -6 1.076 -6 1.046-13
 *H2             1.8831-1 1.8863-1 1.9251-1 2.3938-1
 HCHO,formaldehy 3.3542-6 3.0055-6 1.8188-6 6.0422-8
 HCOOH           4.5829-6 4.1022-6 2.4623-6 6.7647-8
 H2O             2.8140-1 2.8172-1 2.8601-1 2.5426-1
 H2O2            1.615 -6 1.436 -6 5.351 -7 1.536-12
 (HCOOH)2        1.484-16 1.077-16 2.564-17 3.034-21
 *O              6.871 -4 6.501 -4 2.683 -4 2.245-10
 *OH             1.2726-2 1.2264-2 7.2968-3 2.0770-6
 *O2             3.975 -4 3.765 -4 1.567 -4 1.079-10
 O3              2.312-10 1.902-10 2.438-11 1.291-23

  * THERMODYNAMIC PROPERTIES FITTED TO 20000.K

 NOTE. WEIGHT FRACTION OF FUEL IN TOTAL FUELS AND OF OXIDANT IN TOTAL OXIDANTS

              THEORETICAL ROCKET PERFORMANCE ASSUMING EQUILIBRIUM

            COMPOSITION DURING EXPANSION FROM FINITE AREA COMBUSTOR

 Pin =  1469.6 PSIA
 Ac/At =  2.0000      Pinj/Pinf =  1.053792
 CASE = test___________

             REACTANT                    WT FRACTION      ENERGY      TEMP
                                          (SEE NOTE)     KJ/KG-MOL      K  
 FUEL        RP-1                         1.0000000    -24717.700    298.150
 OXIDANT     O2(L)                        1.0000000    -12979.000     90.170

 O/F=    1.89204  %FUEL= 34.577706  R,EQ.RATIO= 1.800000  PHI,EQ.RATIO= 1.800000

                 INJECTOR  COMB END  THROAT     EXIT
 Pinj/P            1.0000   1.1169   1.8700   68.308
 P, BAR            101.33   90.717   54.184   1.4834
 T, K             3223.28  3192.44  2943.52  1504.47
 RHO, KG/CU M    7.6547 0 6.9221 0 4.5035 0 2.4269-1
 H, KJ/KG         -876.89  -953.51 -1601.03 -4773.14
 U, KJ/KG        -2200.58 -2264.06 -2804.17 -5384.36
 G, KJ/KG        -38960.7 -38741.7 -36442.7 -22581.2
 S, KJ/(KG)(K)    11.8152  11.8368  11.8368  11.8368

 M, (1/n)          20.246   20.254   20.342   20.466
 (dLV/dLP)t      -1.00553 -1.00534 -1.00309 -1.00000
 (dLV/dLT)p        1.1023   1.0995   1.0618   1.0001
 Cp, KJ/(KG)(K)    2.9695   2.9524   2.6737   2.0627
 GAMMAs            1.1940   1.1944   1.2038   1.2453
 SON VEL,M/SEC     1257.2   1251.1   1203.4    872.4
 MACH NUMBER        0.000    0.313    1.000    3.200

 PERFORMANCE PARAMETERS

 Ae/At                      2.0000   1.0000   8.0000
 CSTAR, M/SEC               1774.1   1774.1   1774.1
 CF                         0.2207   0.6783   1.5735
 Ivac, M/SEC                3739.1   2203.2   3010.5
 Isp, M/SEC                  391.5   1203.4   2791.5

 MOLE FRACTIONS

 *C              8.674-10 7.023-10 1.093-10 1.723-20
 *CH             1.312 -9 1.052 -9 1.891-10 6.990-19
 CH2             1.009 -8 8.278 -9 2.299 -9 6.122-15
 CH3             7.238 -8 6.139 -8 2.898 -8 2.176-10
 CH2OH           5.259 -9 4.321 -9 1.533 -9 2.715-13
 CH3O            1.428 -9 1.152 -9 3.492-10 1.219-14
 CH4             8.0122-8 6.9245-8 4.9174-8 3.6715-7
 CH3OH           1.390 -9 1.154 -9 5.695-10 2.814-11
 CH3OOH          1.461-14 1.077-14 1.851-15 2.050-22
 *CO             4.3672-1 4.3656-1 4.3555-1 3.9074-1
 *CO2            6.4132-2 6.4480-2 6.7688-2 1.1559-1
 COOH            7.849 -6 7.009 -6 3.257 -6 9.682-10
 *C2             1.697-13 1.242-13 1.259-14 1.869-25
 C2H             2.177-11 1.655-11 2.978-12 2.333-19
 C2H2,acetylene  1.468 -9 1.194 -9 4.912-10 4.171-12
 C2H2,vinylidene 7.461-12 5.703-12 1.357-12 1.082-17
 CH2CO,ketene    5.518 -9 4.530 -9 2.021 -9 3.654-11
 O(CH)2O         1.975-11 1.562-11 5.011-12 1.465-15
 HO(CO)2OH       5.502-13 4.339-13 1.358-13 2.731-17
 C2H3,vinyl      2.074-12 1.563-12 4.146-13 5.709-17
 CH3CO,acetyl    1.283-11 9.805-12 2.953-12 2.010-15
 C2H4            3.383-12 2.635-12 1.183-12 4.750-13
 C2H4O,ethylen-o 1.280-15 9.411-16 2.533-16 1.928-19
 CH3CHO,ethanal  1.127-12 8.653-13 3.416-13 2.485-14
 CH3COOH         2.302-13 1.763-13 6.794-14 3.778-15
 OHCH2COOH       1.307-14 9.558-15 2.464-15 1.029-18
 C2H5            8.512-15 6.132-15 1.748-15 1.066-17
 C2H6            1.700-15 1.246-15 5.227-16 1.661-15
 C2H5OH          1.440-16 1.014-16 3.001-17 1.130-18
 C2O             2.237 -9 1.809 -9 4.423-10 3.191-16
 *C3             3.911-16 2.697-16 2.579-17 2.948-27
 C3H3,2-propynl  2.470-15 1.721-15 3.654-16 7.294-20
 C3H4,propyne    1.670-16 1.161-16 3.066-17 4.024-19
 C3O2            5.058-11 4.009-11 1.313-11 6.587-15
 *H              1.4033-2 1.3662-2 8.5851-3 8.0597-6
 HCO             3.8219-5 3.4241-5 1.6392-5 7.2626-9
 HCCO            8.181-10 6.536-10 1.817-10 2.332-15
 HO2             1.081 -6 9.473 -7 2.344 -7 1.568-15
 *H2             2.2233-1 2.2274-1 2.2736-1 2.7873-1
 HCHO,formaldehy 4.0891-6 3.6611-6 2.2045-6 7.2114-8
 HCOOH           4.2896-6 3.8341-6 2.2721-6 6.2976-8
 H2O             2.5561-1 2.5574-1 2.5734-1 2.1493-1
 H2O2            6.327 -7 5.542 -7 1.720 -7 7.148-14
 (HCOOH)2        1.371-16 9.934-17 2.351-17 3.849-21
 *O              2.360 -4 2.191 -4 7.152 -5 4.490-12
 *OH             6.7706-3 6.4533-3 3.3487-3 2.1219-7
 *O2             1.059 -4 9.835 -5 3.213 -5 1.612-12
 O3              2.389-11 1.899-11 1.583-12 8.169-27

  * THERMODYNAMIC PROPERTIES FITTED TO 20000.K

 NOTE. WEIGHT FRACTION OF FUEL IN TOTAL FUELS AND OF OXIDANT IN TOTAL OXIDANTS

              THEORETICAL ROCKET PERFORMANCE ASSUMING EQUILIBRIUM

            COMPOSITION DURING EXPANSION FROM FINITE AREA COMBUSTOR

 Pin =  1469.6 PSIA
 Ac/At =  2.0000      Pinj/Pinf =  1.054282
 CASE = test___________

             REACTANT                    WT FRACTION      ENERGY      TEMP
                                          (SEE NOTE)     KJ/KG-MOL      K  
 FUEL        RP-1                         1.0000000    -24717.700    298.150
 OXIDANT     O2(L)                        1.0000000    -12979.000     90.170

 O/F=    1.79246  %FUEL= 35.810771  R,EQ.RATIO= 1.900000  PHI,EQ.RATIO= 1.900000

                 INJECTOR  COMB END  THROAT     EXIT
 Pinj/P            1.0000   1.1181   1.8810   70.268
 P, BAR            101.33   90.626   53.866   1.4420
 T, K             3071.66  3040.35  2782.02  1373.86
 RHO, KG/CU M    7.7878 0 7.0392 0 4.5862 0 2.4945-1
 H, KJ/KG         -893.69  -969.69 -1609.84 -4675.95
 U, KJ/KG        -2194.77 -2257.14 -2784.37 -5254.00
 G, KJ/KG        -37478.1 -37249.1 -34806.8 -21069.8
 S, KJ/(KG)(K)    11.9103  11.9327  11.9327  11.9327

 M, (1/n)          19.629   19.635   19.694   19.761
 (dLV/dLP)t      -1.00340 -1.00325 -1.00172 -1.00001
 (dLV/dLT)p        1.0646   1.0624   1.0356   1.0002
 Cp, KJ/(KG)(K)    2.7275   2.7117   2.4921   2.0931
 GAMMAs            1.2086   1.2092   1.2195   1.2517
 SON VEL,M/SEC     1254.0   1247.7   1196.8    850.6
 MACH NUMBER        0.000    0.312    1.000    3.233

 PERFORMANCE PARAMETERS

 Ae/At                      2.0000   1.0000   8.0000
 CSTAR, M/SEC               1751.0   1751.0   1751.0
 CF                         0.2227   0.6835   1.5707
 Ivac, M/SEC                3692.2   2178.2   2960.5
 Isp, M/SEC                  389.9   1196.8   2750.4

 MOLE FRACTIONS

 *C              3.901-10 3.082-10 3.627-11 2.849-22
 *CH             7.937-10 6.239-10 8.987-11 3.114-20
 CH2             9.719 -9 7.883 -9 1.936 -9 1.423-15
 CH3             1.172 -7 9.927 -8 4.660 -8 3.487-10
 CH2OH           5.645 -9 4.612 -9 1.550 -9 1.663-13
 CH3O            1.398 -9 1.119 -9 3.153-10 5.647-15
 CH4             2.0270-7 1.7663-7 1.3879-7 3.4435-6
 CH3OH           2.232 -9 1.857 -9 9.490-10 7.685-11
 CH3OOH          9.966-15 7.255-15 1.096-15 3.618-23
 *CO             4.4978-1 4.4961-1 4.4813-1 3.9775-1
 *CO2            5.3129-2 5.3449-2 5.6464-2 1.0858-1
 COOH            5.023 -6 4.452 -6 1.902 -6 2.470-10
 *C2             1.059-13 7.565-14 5.874-15 5.009-27
 C2H             2.340-11 1.756-11 2.740-12 4.971-20
 C2H2,acetylene  3.149 -9 2.563 -9 1.077 -9 1.243-11
 C2H2,vinylidene 1.167-11 8.860-12 1.971-12 8.100-18
 CH2CO,ketene    9.697 -9 7.973 -9 3.660 -9 1.001-10
 O(CH)2O         2.241-11 1.767-11 5.533-12 1.458-15
 HO(CO)2OH       3.756-13 2.952-13 8.958-14 1.649-17
 C2H3,vinyl      4.272-12 3.212-12 8.409-13 1.106-16
 CH3CO,acetyl    2.221-11 1.697-11 5.140-12 4.346-15
 C2H4            1.168-11 9.169-12 4.568-12 6.467-12
 C2H4O,ethylen-o 2.569-15 1.890-15 5.216-16 6.317-19
 CH3CHO,ethanal  2.824-12 2.181-12 9.341-13 1.944-13
 CH3COOH         4.444-13 3.421-13 1.424-13 2.312-14
 OHCH2COOH       1.561-14 1.142-14 2.991-15 1.980-18
 C2H5            2.797-14 2.024-14 6.189-15 9.429-17
 C2H6            8.636-15 6.411-15 3.177-15 7.369-14
 C2H5OH          4.671-16 3.317-16 1.095-16 1.693-17
 C2O             1.814 -9 1.449 -9 3.101-10 5.666-17
 *C3             4.192-16 2.838-16 2.223-17 2.985-28
 C3H3,2-propynl  7.941-15 5.542-15 1.216-15 4.024-19
 C3H4,allene     3.563-16 2.489-16 7.092-17 2.489-18
 C3H4,propyne    7.532-16 5.277-16 1.546-16 7.436-18
 C3O2            6.736-11 5.330-11 1.727-11 8.854-15
 *H              9.8522-3 9.5032-3 5.3532-3 1.5792-6
 HCO             3.1855-5 2.8339-5 1.2547-5 2.4726-9
 HCCO            8.840-10 7.009-10 1.798-10 1.057-15
 HO2             2.705 -7 2.318 -7 4.429 -8 1.904-17
 *H2             2.5579-1 2.5623-1 2.6100-1 3.1576-1
 HCHO,formaldehy 4.8130-6 4.3052-6 2.5757-6 8.3999-8
 HCOOH           3.9083-6 3.4887-6 2.0465-6 5.8612-8
 H2O             2.2798-1 2.2795-1 2.2760-1 1.7790-1
 H2O2            2.234 -7 1.924 -7 4.938 -8 2.842-15
 (HCOOH)2        1.217-16 8.810-17 2.093-17 5.058-21
 *O              7.167 -5 6.515 -5 1.659 -5 7.325-14
 *OH             3.3280-3 3.1330-3 1.4076-3 1.9078-8
 *O2             2.515 -5 2.286 -5 5.806 -6 1.980-14
 O3              2.004-12 1.533-12 8.182-14 3.654-30

  * THERMODYNAMIC PROPERTIES FITTED TO 20000.K

 NOTE. WEIGHT FRACTION OF FUEL IN TOTAL FUELS AND OF OXIDANT IN TOTAL OXIDANTS

              THEORETICAL ROCKET PERFORMANCE ASSUMING EQUILIBRIUM

            COMPOSITION DURING EXPANSION FROM FINITE AREA COMBUSTOR

 Pin =  1469.6 PSIA
 Ac/At =  2.0000      Pinj/Pinf =  1.054739
 CASE = test___________

             REACTANT                    WT FRACTION      ENERGY      TEMP
                                          (SEE NOTE)     KJ/KG-MOL      K  
 FUEL        RP-1                         1.0000000    -24717.700    298.150
 OXIDANT     O2(L)                        1.0000000    -12979.000     90.170

 O/F=    1.70283  %FUEL= 36.998214  R,EQ.RATIO= 2.000000  PHI,EQ.RATIO= 2.000000

                 INJECTOR  COMB END  THROAT     EXIT
 Pinj/P            1.0000   1.1191   1.8911   71.993
 P, BAR            101.33   90.542   53.580   1.4074
 T, K             2916.24  2884.73  2621.55  1258.03
 RHO, KG/CU M    7.9609 0 7.1928 0 4.6931 0 2.5738-1
 H, KJ/KG         -909.88  -984.84 -1614.21 -4569.02
 U, KJ/KG        -2182.67 -2243.62 -2755.88 -5115.86
 G, KJ/KG        -35878.2 -35642.3 -33109.8 -19683.1
 S, KJ/(KG)(K)    11.9909  12.0141  12.0141  12.0141

 M, (1/n)          19.050   19.054   19.092   19.128
 (dLV/dLP)t      -1.00204 -1.00193 -1.00092 -1.00014
 (dLV/dLT)p        1.0399   1.0382   1.0199   1.0016
 Cp, KJ/(KG)(K)    2.5621   2.5481   2.3784   2.1349
 GAMMAs            1.2228   1.2235   1.2339   1.2565
 SON VEL,M/SEC     1247.5   1241.0   1186.9    828.9
 MACH NUMBER        0.000    0.312    1.000    3.264

 PERFORMANCE PARAMETERS

 Ae/At                      2.0000   1.0000   8.0000
 CSTAR, M/SEC               1724.7   1724.7   1724.7
 CF                         0.2245   0.6882   1.5685
 Ivac, M/SEC                3638.2   2148.8   2907.4
 Isp, M/SEC                  387.2   1186.9   2705.2

 MOLE FRACTIONS

 *C              1.501-10 1.154-10 1.011-11 3.599-24
 *CH             4.188-10 3.221-10 3.668-11 1.111-21
 CH2             8.496 -9 6.806 -9 1.466 -9 2.889-16
 CH3             1.809 -7 1.531 -7 7.132 -8 5.430-10
 CH2OH           5.691 -9 4.623 -9 1.469 -9 9.514-14
 CH3O            1.273 -9 1.012 -9 2.642-10 2.420-15
 CH4             5.1132-7 4.4965-7 3.9320-7 3.4705-5
 CH3OH           3.487 -9 2.909 -9 1.545 -9 2.126-10
 CH3OOH          6.147-15 4.417-15 5.856-16 5.609-24
 *CO             4.6000-1 4.5980-1 4.5784-1 4.0294-1
 *CO2            4.4274-2 4.4580-2 4.7555-2 1.0338-1
 COOH            3.061 -6 2.691 -6 1.056 -6 5.832-11
 *C2             5.611-14 3.905-14 2.284-15 1.036-28
 C2H             2.253-11 1.666-11 2.233-12 9.209-21
 C2H2,acetylene  6.505 -9 5.300 -9 2.272 -9 3.740-11
 C2H2,vinylidene 1.682-11 1.267-11 2.620-12 5.601-18
 CH2CO,ketene    1.663 -8 1.370 -8 6.480 -9 2.804-10
 O(CH)2O         2.439-11 1.917-11 5.868-12 1.429-15
 HO(CO)2OH       2.496-13 1.956-13 5.798-14 9.924-18
 C2H3,vinyl      8.252-12 6.189-12 1.595-12 2.076-16
 CH3CO,acetyl    3.673-11 2.806-11 8.560-12 9.402-15
 C2H4            3.973-11 3.146-11 1.747-11 9.526-11
 C2H4O,ethylen-o 4.926-15 3.628-15 1.030-15 2.101-18
 CH3CHO,ethanal  6.955-12 5.407-12 2.528-12 1.623-12
 CH3COOH         8.490-13 6.578-13 2.981-13 1.531-13
 OHCH2COOH       1.807-14 1.323-14 3.547-15 3.935-18
 C2H5            8.815-14 6.414-14 2.108-14 8.689-16
 C2H6            4.375-14 3.295-14 1.944-14 3.723-12
 C2H5OH          1.482-15 1.062-15 3.942-16 2.762-16
 C2O             1.348 -9 1.063 -9 1.978-10 8.909-18
 *C3             3.897-16 2.585-16 1.633-17 2.479-29
 C3H3,2-propynl  2.418-14 1.690-14 3.834-15 2.267-18
 C3H4,allene     1.538-15 1.083-15 3.423-16 4.743-17
 C3H4,propyne    3.302-15 2.333-15 7.611-16 1.496-16
 C3H6,propylene  2.374-17 1.617-17 6.344-18 1.926-16
 C3O2            8.715-11 6.884-11 2.210-11 1.202-14
 *H              6.4683-3 6.1750-3 3.0999-3 2.7682-7
 HCO             2.512 -5 2.218 -5 9.047 -6 7.757-10
 HCCO            8.910-10 7.005-10 1.653-10 4.439-16
 HO2             5.982 -8 5.003 -8 7.311 -9 1.803-19
 *H2             2.8766-1 2.8811-1 2.9266-1 3.5013-1
 HCHO,formaldehy 5.5035-6 4.9182-6 2.9255-6 9.6188-8
 HCOOH           3.4846-6 3.1070-6 1.8108-6 5.4431-8
 H2O             2.0002-1 1.9988-1 1.9828-1 1.4350-1
 H2O2            7.143 -8 6.044 -8 1.276 -8 9.368-17
 (HCOOH)2        1.050-16 7.600-17 1.832-17 6.858-21
 *O              1.935 -5 1.718 -5 3.377 -6 9.455-16
 *OH             1.5171-3 1.4089-3 5.4478-4 1.4815-9
 *O2             5.348 -6 4.748 -6 9.290 -7 1.923-16
 O3              1.379-13 1.011-13 3.408-15 1.080-33

  * THERMODYNAMIC PROPERTIES FITTED TO 20000.K

 NOTE. WEIGHT FRACTION OF FUEL IN TOTAL FUELS AND OF OXIDANT IN TOTAL OXIDANTS

              THEORETICAL ROCKET PERFORMANCE ASSUMING EQUILIBRIUM

            COMPOSITION DURING EXPANSION FROM FINITE AREA COMBUSTOR

 Pin =  1469.6 PSIA
 Ac/At =  2.0000      Pinj/Pinf =  1.055156
 CASE = test___________

             REACTANT                    WT FRACTION      ENERGY      TEMP
                                          (SEE NOTE)     KJ/KG-MOL      K  
 FUEL        RP-1                         1.0000000    -24717.700    298.150
 OXIDANT     O2(L)                        1.0000000    -12979.000     90.170

 O/F=    1.62175  %FUEL= 38.142523  R,EQ.RATIO= 2.100000  PHI,EQ.RATIO= 2.100000

                 INJECTOR  COMB END  THROAT     EXIT
 Pinj/P            1.0000   1.1201   1.9001   73.453
 P, BAR            101.33   90.465   53.327   1.3795
 T, K             2760.50  2729.07  2465.10  1156.24
 RHO, KG/CU M    8.1716 0 7.3808 0 4.8226 0 2.6641-1
 H, KJ/KG         -925.47  -999.05 -1614.78 -4454.78
 U, KJ/KG        -2165.44 -2224.73 -2720.54 -4972.57
 G, KJ/KG        -34210.4 -33970.8 -31397.3 -18424.1
 S, KJ/(KG)(K)    12.0576  12.0817  12.0817  12.0817

 M, (1/n)          18.510   18.513   18.536   18.567
 (dLV/dLP)t      -1.00118 -1.00111 -1.00048 -1.00147
 (dLV/dLT)p        1.0239   1.0227   1.0107   1.0188
 Cp, KJ/(KG)(K)    2.4502   2.4382   2.3094   2.2693
 GAMMAs            1.2361   1.2369   1.2468   1.2553
 SON VEL,M/SEC     1238.0   1231.3   1174.1    806.2
 MACH NUMBER        0.000    0.312    1.000    3.295

 PERFORMANCE PARAMETERS

 Ae/At                      2.0000   1.0000   8.0000
 CSTAR, M/SEC               1695.9   1695.9   1695.9
 CF                         0.2262   0.6924   1.5666
 Ivac, M/SEC                3578.8   2115.9   2851.7
 Isp, M/SEC                  383.6   1174.1   2656.8

 MOLE FRACTIONS

 *C              4.981-11 3.719-11 2.393-12 3.724-26
 *CH             1.946-10 1.462-10 1.304-11 3.361-23
 CH2             6.812 -9 5.384 -9 1.012 -9 5.317-17
 CH3             2.694 -7 2.277 -7 1.054 -7 8.304-10
 CH2OH           5.434 -9 4.388 -9 1.318 -9 5.157-14
 CH3O            1.088 -9 8.580-10 2.078-10 9.767-16
 CH4             1.3032-6 1.1578-6 1.1353-6 3.7090-4
 CH3OH           5.353 -9 4.481 -9 2.485 -9 5.921-10
 CH3OOH          3.458-15 2.452-15 2.850-16 7.812-25
 *CO             4.6806-1 4.6783-1 4.6549-1 4.0723-1
 *CO2            3.7079-2 3.7378-2 4.0362-2 9.9108-2
 COOH            1.779 -6 1.550 -6 5.580 -7 1.292-11
 *C2             2.561-14 1.732-14 7.536-16 1.784-30
 C2H             1.971-11 1.435-11 1.644-12 1.556-21
 C2H2,acetylene  1.314 -8 1.072 -8 4.699 -9 1.149-10
 C2H2,vinylidene 2.267-11 1.695-11 3.251-12 3.693-18
 CH2CO,ketene    2.813 -8 2.323 -8 1.137 -8 8.062-10
 O(CH)2O         2.568-11 2.013-11 6.043-12 1.391-15
 HO(CO)2OH       1.621-13 1.267-13 3.692-14 5.922-18
 C2H3,vinyl      1.520-11 1.137-11 2.887-12 3.856-16
 CH3CO,acetyl    5.888-11 4.497-11 1.388-11 2.051-14
 C2H4            1.356-10 1.084-10 6.763-11 1.509 -9
 C2H4O,ethylen-o 9.172-15 6.770-15 1.990-15 7.126-18
 CH3CHO,ethanal  1.710-11 1.340-11 6.890-12 1.436-11
 CH3COOH         1.625-12 1.269-12 6.326-13 1.080-12
 OHCH2COOH       2.046-14 1.501-14 4.160-15 8.007-18
 C2H5            2.719-13 1.991-13 7.084-14 8.358-15
 C2H6            2.258-13 1.729-13 1.229-13 2.101-10
 C2H5OH          4.688-15 3.396-15 1.433-15 4.834-15
 C2O             9.277-10 7.209-10 1.161-10 1.289-18
 *C3             3.197-16 2.074-16 1.047-17 1.811-30
 C3H3,2-propynl  7.135-14 4.998-14 1.176-14 1.328-17
 C3H4,allene     6.597-15 4.687-15 1.657-15 9.841-16
 C3H4,propyne    1.441-14 1.028-14 3.765-15 3.281-15
 C3H4,cyclo-     1.175-16 7.997-17 1.890-17 1.018-19
 C3H5,allyl      2.301-16 1.563-16 4.736-17 2.121-17
 C3H6,propylene  1.680-16 1.164-16 5.588-17 1.934-14
 C3H6O,acetone   5.698-18 3.909-18 1.706-18 1.669-16
 C3H8            9.760-20 6.428-20 3.293-20 4.150-16
 C3O2            1.107-10 8.730-11 2.784-11 1.669-14
 C4H2,butadiyne  2.247-16 1.493-16 2.810-17 1.265-20
 *H              3.9844-3 3.7612-3 1.6751-3 4.4503-8
 HCO             1.883 -5 1.648 -5 6.182 -6 2.286-10
 HCCO            8.466-10 6.598-10 1.428-10 1.776-16
 HO2             1.167 -8 9.505 -9 1.053 -9 1.391-21
 *H2             3.1745-1 3.1787-1 3.2205-1 3.8091-1
 HCHO,formaldehy 6.1516-6 5.4928-6 3.2542-6 1.0865-7
 HCOOH           3.0510-6 2.7183-6 1.5796-6 5.0262-8
 H2O             1.7276-1 1.7254-1 1.7022-1 1.1239-1
 H2O2            2.069 -8 1.717 -8 2.964 -9 2.634-18
 *O              4.638 -6 4.015 -6 6.031 -7 1.013-17
 *OH             6.415 -4 5.870 -4 1.943 -4 1.020-10
 *O2             1.014 -6 8.779 -7 1.311 -7 1.538-18
 O3              7.757-15 5.438-15 1.140-16 0.000  0

  * THERMODYNAMIC PROPERTIES FITTED TO 20000.K

 NOTE. WEIGHT FRACTION OF FUEL IN TOTAL FUELS AND OF OXIDANT IN TOTAL OXIDANTS

              THEORETICAL ROCKET PERFORMANCE ASSUMING EQUILIBRIUM

            COMPOSITION DURING EXPANSION FROM FINITE AREA COMBUSTOR

 Pin =  1469.6 PSIA
 Ac/At =  2.0000      Pinj/Pinf =  1.055531
 CASE = test___________

             REACTANT                    WT FRACTION      ENERGY      TEMP
                                          (SEE NOTE)     KJ/KG-MOL      K  
 FUEL        RP-1                         1.0000000    -24717.700    298.150
 OXIDANT     O2(L)                        1.0000000    -12979.000     90.170

 O/F=    1.54803  %FUEL= 39.246004  R,EQ.RATIO= 2.200000  PHI,EQ.RATIO= 2.200000

                 INJECTOR  COMB END  THROAT     EXIT
 Pinj/P            1.0000   1.1209   1.9080   73.977
 P, BAR            101.33   90.396   53.104   1.3697
 T, K             2606.86  2575.77  2314.39  1079.86
 RHO, KG/CU M    8.4186 0 7.6019 0 4.9738 0 2.7669-1
 H, KJ/KG         -940.51 -1012.40 -1612.21 -4331.89
 U, KJ/KG        -2144.09 -2201.52 -2679.88 -4826.91
 G, KJ/KG        -32511.7 -32271.3 -29699.0 -17436.8
 S, KJ/(KG)(K)    12.1108  12.1357  12.1357  12.1357

 M, (1/n)          18.009   18.010   18.023   18.138
 (dLV/dLP)t      -1.00067 -1.00062 -1.00025 -1.01108
 (dLV/dLT)p        1.0139   1.0130   1.0055   1.1520
 Cp, KJ/(KG)(K)    2.3763   2.3663   2.2696   3.1450
 GAMMAs            1.2485   1.2494   1.2583   1.2230
 SON VEL,M/SEC     1225.8   1218.9   1159.1    778.1
 MACH NUMBER        0.000    0.311    1.000    3.347

 PERFORMANCE PARAMETERS

 Ae/At                      2.0000   1.0000   8.0000
 CSTAR, M/SEC               1665.2   1665.2   1665.2
 CF                         0.2277   0.6961   1.5640
 Ivac, M/SEC                3515.2   2080.2   2794.4
 Isp, M/SEC                  379.2   1159.0   2604.4

 MOLE FRACTIONS

 *C              1.434-11 1.037-11 4.848-13 6.973-28
 *CH             8.023-11 5.876-11 4.069-12 1.599-24
 CH2             5.057 -9 3.940 -9 6.443-10 1.221-17
 CH3             3.9145-7 3.3047-7 1.5234-7 1.2099-9
 CH2OH           4.951 -9 3.972 -9 1.128 -9 2.995-14
 CH3O            8.799-10 6.883-10 1.547-10 4.402-16
 CH4             3.4047-6 3.0596-6 3.3928-6 2.9510-3
 CH3OH           8.1525-9 6.8515-9 3.9900-9 1.4326-9
 CH3OOH          1.784-15 1.247-15 1.271-16 1.365-25
 *CO             4.7453-1 4.7429-1 4.7168-1 4.1171-1
 *CO2            3.1131-2 3.1426-2 3.4411-2 9.4655-2
 COOH            9.853 -7 8.511 -7 2.807 -7 3.415-12
 *C2             1.018-14 6.674-15 2.139-16 5.350-32
 C2H             1.589-11 1.138-11 1.110-12 3.430-22
 C2H2,acetylene  2.635 -8 2.154 -8 9.699 -9 3.190-10
 C2H2,vinylidene 2.905-11 2.154-11 3.829-12 2.660-18
 CH2CO,ketene    4.7545-8 3.9383-8 2.0049-8 2.0820-9
 O(CH)2O         2.636-11 2.061-11 6.091-12 1.381-15
 HO(CO)2OH       1.028-13 8.016-14 2.309-14 3.739-18
 C2H3,vinyl      2.718-11 2.029-11 5.092-12 6.850-16
 CH3CO,acetyl    9.272-11 7.086-11 2.223-11 4.154-14
 C2H4            4.737-10 3.831-10 2.709-10 1.743 -8
 C2H4O,ethylen-o 1.686-14 1.248-14 3.824-15 2.115-17
 CH3CHO,ethanal  4.264-11 3.372-11 1.924-11 9.832-11
 CH3COOH         3.157-12 2.488-12 1.378-12 6.030-12
 OHCH2COOH       2.287-14 1.682-14 4.861-15 1.493-17
 C2H5            8.394-13 6.190-13 2.405-13 6.215-14
 C2H6            1.217-12 9.487-13 8.238-13 7.314 -9
 C2H5OH          1.508-14 1.106-14 5.370-15 5.978-14
 CH3OCH3         2.306-16 1.645-16 6.165-17 3.724-17
 C2O             5.954-10 4.557-10 6.329-11 2.459-19
 *C3             2.356-16 1.492-16 5.972-18 1.968-31
 C3H3,1-propynl  1.818-16 1.202-16 1.665-17 4.311-23
 C3H3,2-propynl  2.089-13 1.467-13 3.606-14 6.643-17
 C3H4,allene     2.887-14 2.073-14 8.287-15 1.483-14
 C3H4,propyne    6.432-14 4.638-14 1.927-14 5.186-14
 C3H4,cyclo-     4.130-16 2.828-16 7.208-17 8.200-19
 C3H5,allyl      1.110-15 7.624-16 2.647-16 4.042-16
 C3H6,propylene  1.248-15 8.816-16 5.263-16 1.148-12
 C3H6,cyclo-     7.508-18 5.193-18 2.538-18 7.001-16
 C3H6O,acetone   3.186-17 2.227-17 1.196-17 6.791-15
 C3H6O,propanal  3.602-17 2.463-17 1.080-17 6.760-16
 C3H8            1.079-18 7.292-19 4.969-19 6.753-14
 C3O2            1.394-10 1.098-10 3.493-11 2.339-14
 C4H2,butadiyne  8.290-16 5.527-16 1.097-16 9.135-20
 *H              2.3069-3 2.1515-3 8.4655-4 8.9113-9
 HCO             1.346 -5 1.168 -5 4.018 -6 7.847-11
 HCCO            7.657-10 5.912-10 1.174-10 8.206-17
 HO2             1.993 -9 1.578 -9 1.312-10 1.896-23
 *H2             3.4499-1 3.4538-1 3.4917-1 4.0297-1
 HCHO,formaldehy 6.7582-6 6.0307-6 3.5656-6 1.2031-7
 HCOOH           2.6274-6 2.3399-6 1.3605-6 4.6351-8
 H2O             1.4676-1 1.4650-1 1.4381-1 8.7715-2
 H2O2            5.396 -9 4.387 -9 6.158-10 1.109-19
 *O              9.832 -7 8.282 -7 9.406 -8 1.878-19
 *OH             2.508 -4 2.259 -4 6.363 -5 9.548-12
 *O2             1.700 -7 1.432 -7 1.615 -8 2.175-20
 O3              3.522-16 2.353-16 3.015-18 0.000  0

  * THERMODYNAMIC PROPERTIES FITTED TO 20000.K

 NOTE. WEIGHT FRACTION OF FUEL IN TOTAL FUELS AND OF OXIDANT IN TOTAL OXIDANTS

              THEORETICAL ROCKET PERFORMANCE ASSUMING EQUILIBRIUM

            COMPOSITION DURING EXPANSION FROM FINITE AREA COMBUSTOR

 Pin =  1469.6 PSIA
 Ac/At =  2.0000      Pinj/Pinf =  1.055869
 CASE = test___________

             REACTANT                    WT FRACTION      ENERGY      TEMP
                                          (SEE NOTE)     KJ/KG-MOL      K  
 FUEL        RP-1                         1.0000000    -24717.700    298.150
 OXIDANT     O2(L)                        1.0000000    -12979.000     90.170

 O/F=    1.48072  %FUEL= 40.310805  R,EQ.RATIO= 2.300000  PHI,EQ.RATIO= 2.300000

                 INJECTOR  COMB END  THROAT     EXIT
 Pinj/P            1.0000   1.1217   1.9152   72.662
 P, BAR            101.33   90.334   52.905   1.3945
 T, K             2456.96  2426.45  2170.21  1041.62
 RHO, KG/CU M    8.7017 0 7.8557 0 5.1461 0 2.8833-1
 H, KJ/KG         -955.02 -1024.98 -1607.12 -4200.84
 U, KJ/KG        -2119.45 -2174.89 -2635.18 -4684.49
 G, KJ/KG        -30809.4 -30571.1 -28033.1 -16884.3
 S, KJ/(KG)(K)    12.1509  12.1767  12.1767  12.1767

 M, (1/n)          17.544   17.545   17.552   17.907
 (dLV/dLP)t      -1.00039 -1.00036 -1.00015 -1.03276
 (dLV/dLT)p        1.0078   1.0073   1.0029   1.4668
 Cp, KJ/(KG)(K)    2.3295   2.3213   2.2486   5.2920
 GAMMAs            1.2598   1.2607   1.2686   1.1848
 SON VEL,M/SEC     1211.2   1204.0   1142.0    757.0
 MACH NUMBER        0.000    0.311    1.000    3.366

 PERFORMANCE PARAMETERS

 Ae/At                      2.0000   1.0000   8.0000
 CSTAR, M/SEC               1632.9   1632.9   1632.9
 CF                         0.2291   0.6994   1.5603
 Ivac, M/SEC                3448.2   2042.2   2737.7
 Isp, M/SEC                  374.1   1142.0   2547.9

 MOLE FRACTIONS

 *C              3.592-12 2.512-12 8.413-14 8.036-29
 *CH             2.951-11 2.104-11 1.120-12 3.109-25
 CH2             3.505 -9 2.690 -9 3.809-10 5.722-18
 CH3             5.6130-7 4.7348-7 2.1782-7 1.5913-9
 CH2OH           4.325 -9 3.449 -9 9.266-10 2.265-14
 CH3O            6.770-10 5.253-10 1.095-10 2.897-16
 CH4             9.2532-6 8.4215-6 1.0658-5 1.0027-2
 CH3OH           1.2420-8 1.0488-8 6.4494-9 2.4079-9
 CH3OOH          8.447-16 5.821-16 5.190-17 5.112-26
 *CO             4.7987-1 4.7962-1 4.7688-1 4.1724-1
 *CO2            2.6102-2 2.6389-2 2.9344-2 8.9219-2
 COOH            5.183 -7 4.436 -7 1.337 -7 1.585-12
 *C2             3.560-15 2.259-15 5.266-17 8.597-33
 C2H             1.197-11 8.425-12 6.967-13 1.681-22
 C2H2,acetylene  5.343 -8 4.378 -8 2.033 -8 6.419-10
 C2H2,vinylidene 3.592-11 2.641-11 4.350-12 2.528-18
 CH2CO,ketene    8.1199-8 6.7508-8 3.5920-8 3.8613-9
 O(CH)2O         2.653-11 2.071-11 6.043-12 1.445-15
 HO(CO)2OH       6.337-14 4.934-14 1.410-14 2.803-18
 C2H3,vinyl      4.804-11 3.581-11 8.911-12 1.081-15
 CH3CO,acetyl    1.454-10 1.113-10 3.567-11 6.770-14
 C2H4            1.7310-9 1.4177-9 1.1482-9 7.8269-8
 C2H4O,ethylen-o 3.105-14 2.307-14 7.424-15 4.286-17
 CH3CHO,ethanal  1.096-10 8.755-11 5.601-11 3.168-10
 CH3COOH         6.286-12 5.007-12 3.114-12 1.667-11
 OHCH2COOH       2.535-14 1.871-14 5.685-15 2.156-17
 C2H5            2.652-12 1.973-12 8.448-13 2.197-13
 C2H6            7.025-12 5.589-12 6.022-12 6.131 -8
 C2H5OH          5.034-14 3.743-14 2.118-14 2.704-13
 CH3OCH3         6.702-16 4.835-16 2.053-16 1.378-16
 C2O             3.588-10 2.703-10 3.222-11 1.060-19
 *C3             1.585-16 9.794-17 3.082-18 6.945-32
 C3H3,1-propynl  3.991-16 2.632-16 3.596-17 8.223-23
 C3H3,2-propynl  6.226-13 4.391-13 1.135-13 2.004-16
 C3H4,allene     1.327-13 9.644-14 4.409-14 8.300-14
 C3H4,propyne    3.018-13 2.204-13 1.052-13 2.981-13
 C3H4,cyclo-     1.493-15 1.029-15 2.857-16 3.242-18
 C3H5,allyl      5.626-15 3.917-15 1.580-15 2.593-15
 C3H6,propylene  1.006-14 7.263-15 5.488-15 1.392-11
 C3H6,cyclo-     5.434-17 3.834-17 2.328-17 7.406-15
[...]
 C4H6,1butyne    1.644-15 1.139-15 1.024-15 4.410-17
 C4H6,2butyne    1.241-15 8.767-16 9.517-16 1.298-16
 C4H8,1-butene   2.963-16 2.102-16 4.172-16 2.545-15
 C4H8,cis2-buten 1.157-16 8.282-17 1.796-16 1.843-15
 C4H8,tr2-butene 1.301-16 9.311-17 2.017-16 2.118-15
 C4H8,isobutene  1.410-16 1.014-16 2.294-16 3.150-15
 C4H10,n-butane  1.800-18 1.260-18 3.860-18 3.670-16
 C4H10,isobutane 5.691-19 4.008-19 1.309-18 1.885-16
 C6H6            2.407-18 1.773-18 8.834-18 6.316-15
 *H              1.3823-4 1.2170-4 2.7680-5 2.7565-9
 HCO             2.226 -6 1.855 -6 4.377 -7 4.007-11
 HCCO            3.752-10 2.784-10 3.838-11 7.002-17
 HO2             3.195-13 2.208-13 5.113-15 7.015-25
 *H2             4.3413-1 4.3441-1 4.3647-1 4.1253-1
 HCHO,formaldehy 8.9276-6 7.9631-6 4.7409-6 1.4678-7
 HCOOH           1.1607-6 1.0349-6 6.2079-7 4.2435-8
 H2O             5.9143-2 5.8895-2 5.6646-2 6.1878-2
 H2O2            6.574-12 4.845-12 2.723-13 9.526-21
 *O              4.625-10 3.415-10 1.114-11 9.203-21
 *OH             2.273 -6 1.897 -6 2.599 -7 1.503-12
 *O2             2.702-11 1.992-11 6.414-13 7.513-22
 C(gr)           0.0000 0 0.0000 0 0.0000 0 4.0544-2

  * THERMODYNAMIC PROPERTIES FITTED TO 20000.K

 NOTE. WEIGHT FRACTION OF FUEL IN TOTAL FUELS AND OF OXIDANT IN TOTAL OXIDANTS

              THEORETICAL ROCKET PERFORMANCE ASSUMING EQUILIBRIUM

            COMPOSITION DURING EXPANSION FROM FINITE AREA COMBUSTOR

 Pin =  1469.6 PSIA
 Ac/At =  2.0000      Pinj/Pinf =  1.056765
 CASE = test___________

             REACTANT                    WT FRACTION      ENERGY      TEMP
                                          (SEE NOTE)     KJ/KG-MOL      K  
 FUEL        RP-1                         1.0000000    -24717.700    298.150
 OXIDANT     O2(L)                        1.0000000    -12979.000     90.170

 O/F=    1.26136  %FUEL= 44.221218  R,EQ.RATIO= 2.700000  PHI,EQ.RATIO= 2.700000

                 INJECTOR  COMB END  THROAT     EXIT
 Pinj/P            1.0000   1.1237   1.9308   60.779
 P, BAR            101.33   90.170   52.477   1.6671
 T, K             1914.17  1887.27  1672.64  1036.05
 RHO, KG/CU M    1.0209 1 9.2140 0 6.0643 0 3.4200-1
 H, KJ/KG        -1008.32 -1068.85 -1567.28 -3754.31
 U, KJ/KG        -2000.84 -2047.48 -2432.63 -4241.76
 G, KJ/KG        -24328.3 -24115.2 -21992.7 -16406.0
 S, KJ/(KG)(K)    12.1828  12.2115  12.2115  12.2115

 M, (1/n)          16.035   16.034   16.071   17.672
 MW, MOL WT        16.035   16.034   16.071   16.638
 (dLV/dLP)t      -1.00402 -1.00390 -1.00800 -1.09560
 (dLV/dLT)p        1.0288   1.0285   1.0667   2.5733
 Cp, KJ/(KG)(K)    2.3751   2.3709   2.5163  14.7916
 GAMMAs            1.2938   1.2944   1.2919   1.1300
 SON VEL,M/SEC     1133.2   1125.5   1057.3    742.2
 MACH NUMBER        0.000    0.309    1.000    3.158

 PERFORMANCE PARAMETERS

 Ae/At                      2.0000   1.0000   8.0000
 CSTAR, M/SEC               1495.4   1495.4   1495.4
 CF                         0.2327   0.7071   1.5672
 Ivac, M/SEC                3160.5   1875.8   2551.5
 Isp, M/SEC                  347.9   1057.3   2343.5

 MOLE FRACTIONS

 *C              3.940-15 2.349-15 2.031-17 5.950-29
 *CH             2.002-13 1.259-13 2.295-15 2.803-25
 CH2             4.964-10 3.560-10 2.787-11 6.629-18
 CH3             2.6882-6 2.2693-6 1.0243-6 2.4247-9
 CH2OH           1.759 -9 1.366 -9 2.966-10 2.791-14
 CH3O            1.531-10 1.147-10 1.805-11 3.495-16
 CH4             1.0276-3 9.9900-4 2.1408-3 1.9844-2
 CH3OH           7.4874-8 6.4974-8 5.0549-8 3.7657-9
 *CO             4.9551-1 4.9531-1 4.9294-1 3.7780-1
 *CO2            1.0811-2 1.1007-2 1.3406-2 7.0258-2
 COOH            1.999 -8 1.637 -8 3.550 -9 1.260-12
 C2H             2.852-12 1.859-12 7.760-14 2.269-22
 C2H2,acetylene  1.5756-6 1.3145-6 6.7830-7 1.2077-9
 C2H2,vinylidene 8.967-11 6.371-11 7.540-12 4.244-18
 CH2CO,ketene    1.0058-6 8.5606-7 5.4560-7 6.3085-9
 O(CH)2O         2.424-11 1.883-11 5.391-12 1.904-15
 HO(CO)2OH       5.191-15 4.025-15 1.211-15 2.713-18
 C2H3,vinyl      6.618-10 4.927-10 1.164-10 2.203-15
 CH3CO,acetyl    1.125 -9 8.723-10 3.084-10 1.220-13
 C2H4            8.1284-7 7.1335-7 9.8408-7 2.1034-7
 C2H4O,ethylen-o 5.023-13 3.832-13 1.523-13 8.976-17
 CH3CHO,ethanal  8.988 -9 7.608 -9 7.783 -9 7.119-10
 CH3COOH         1.487-10 1.256-10 1.302-10 3.219-11
 OHCH2COOH       3.372-14 2.554-14 1.018-14 3.317-17
 C2H5            5.667-10 4.433-10 2.778-10 6.402-13
 C2H6            2.7774-8 2.4619-8 6.2801-8 2.2907-7
 C2H5OH          1.320-11 1.060-11 1.133-11 8.091-13
 CH3OCH3         8.895-14 6.837-14 4.893-14 3.998-16
 C2O             3.007-11 2.108-11 1.355-12 1.098-19
 C3H3,1-propynl  1.636-14 1.077-14 1.356-15 2.246-22
 C3H3,2-propynl  1.162-10 8.433-11 2.606-11 5.867-16
 C3H4,allene     1.987-10 1.548-10 1.192-10 3.002-13
 C3H4,propyne    4.998-10 3.920-10 3.197-10 1.083-12
 C3H4,cyclo-     6.843-13 4.942-13 1.895-13 1.112-17
 C3H5,allyl      1.299-11 9.771-12 7.095-12 1.077-14
 C3H6,propylene  2.119-10 1.724-10 3.316-10 7.158-11
 C3H6,cyclo-     6.857-13 5.403-13 7.770-13 3.732-14
 C3H6O,propylox  1.021-16 7.264-17 4.254-17 3.443-20
 C3H6O,acetone   9.350-13 7.472-13 1.257-12 2.786-13
 C3H6O,propanal  5.576-13 4.307-13 5.326-13 2.342-14
 C3H7,n-propyl   3.898-14 2.787-14 2.138-14 2.482-17
 C3H7,i-propyl   3.280-14 2.372-14 2.013-14 3.901-17
 C3H8            1.935-12 1.571-12 5.001-12 1.028-11
 C3H8O,1propanol 8.120-16 5.986-16 8.134-16 3.540-17
 C3H8O,2propanol 7.852-16 5.852-16 8.795-16 6.876-17
 C3O2            5.724-10 4.520-10 1.467-10 4.440-14
 C4H2,butadiyne  2.184-12 1.516-12 3.953-13 1.277-18
 C4H6,butadiene  4.632-13 3.465-13 5.161-13 8.723-15
 C4H6,1butyne    3.787-14 2.720-14 2.753-14 5.093-17
 C4H6,2butyne    3.137-14 2.302-14 2.842-14 1.493-16
 C4H6,cyclo-     9.304-16 6.736-16 7.377-16 2.237-18
 C4H8,1-butene   1.366-14 1.019-14 2.454-14 3.026-15
 C4H8,cis2-buten 5.576-15 4.199-15 1.110-14 2.188-15
 C4H8,tr2-butene 6.264-15 4.717-15 1.246-14 2.513-15
 C4H8,isobutene  6.940-15 5.253-15 1.452-14 3.735-15
 C4H10,n-butane  1.393-16 1.034-16 4.068-16 4.527-16
 C4H10,isobutane 4.543-17 3.399-17 1.430-16 2.322-16
 C5H6,1,3cyclo-  9.669-16 7.191-16 1.661-15 7.749-17
 C6H6            4.627-16 3.644-16 2.336-15 7.185-15
 *H              5.8942-5 5.1025-5 1.0535-5 2.7775-9
 HCO             1.278 -6 1.053 -6 2.327 -7 4.080-11
 HCCO            3.120-10 2.291-10 2.926-11 7.303-17
 HO2             2.134-14 1.416-14 2.719-16 7.417-25
 *H2             4.5068-1 4.5094-1 4.5096-1 4.1185-1
 HCHO,formaldehy 9.4287-6 8.4153-6 5.0224-6 1.4982-7
 HCOOH           8.5551-7 7.6339-7 4.7215-7 4.3147-8
 H2O             4.1900-2 4.1672-2 4.0531-2 6.1730-2
 H2O2            7.933-13 5.676-13 2.819-14 1.011-20
 *O              4.512-11 3.202-11 8.559-13 9.445-21
 *OH             5.263 -7 4.293 -7 5.270 -8 1.530-12
 *O2             1.826-12 1.293-12 3.470-14 7.699-22
 C(gr)           0.0000 0 0.0000 0 0.0000 0 5.8525-2

  * THERMODYNAMIC PROPERTIES FITTED TO 20000.K

 NOTE. WEIGHT FRACTION OF FUEL IN TOTAL FUELS AND OF OXIDANT IN TOTAL OXIDANTS

              THEORETICAL ROCKET PERFORMANCE ASSUMING EQUILIBRIUM

            COMPOSITION DURING EXPANSION FROM FINITE AREA COMBUSTOR

 Pin =  1469.6 PSIA
 Ac/At =  2.0000      Pinj/Pinf =  1.056459
 CASE = test___________

             REACTANT                    WT FRACTION      ENERGY      TEMP
                                          (SEE NOTE)     KJ/KG-MOL      K  
 FUEL        RP-1                         1.0000000    -24717.700    298.150
 OXIDANT     O2(L)                        1.0000000    -12979.000     90.170

 O/F=    1.21631  %FUEL= 45.120054  R,EQ.RATIO= 2.800000  PHI,EQ.RATIO= 2.800000

                 INJECTOR  COMB END  THROAT     EXIT
 Pinj/P            1.0000   1.1230   1.9190   58.833
 P, BAR            101.33   90.228   52.800   1.7222
 T, K             1807.70  1782.01  1593.30  1035.92
 RHO, KG/CU M    1.0654 1 9.6231 0 6.3407 0 3.5372-1
 H, KJ/KG        -1020.57 -1078.23 -1551.78 -3687.65
 U, KJ/KG        -1971.63 -2015.85 -2384.50 -4174.54
 G, KJ/KG        -23000.0 -22796.8 -20970.4 -16313.1
 S, KJ/(KG)(K)    12.1588  12.1877  12.1877  12.1877

 M, (1/n)          15.804   15.802   15.909   17.690
 MW, MOL WT        15.804   15.802   15.909   16.336
 (dLV/dLP)t      -1.01311 -1.01299 -1.02219 -1.09630
 (dLV/dLT)p        1.0998   1.1005   1.1951   2.5754
 Cp, KJ/(KG)(K)    2.6693   2.6741   3.1311  14.7633
 GAMMAs            1.2908   1.2908   1.2759   1.1298
 SON VEL,M/SEC     1108.0   1100.1   1030.7    741.7
 MACH NUMBER        0.000    0.309    1.000    3.114

 PERFORMANCE PARAMETERS

 Ae/At                      2.0000   1.0000   8.0000
 CSTAR, M/SEC               1467.5   1467.5   1467.5
 CF                         0.2314   0.7024   1.5738
 Ivac, M/SEC                3100.7   1838.6   2520.4
 Isp, M/SEC                  339.6   1030.7   2309.6

 MOLE FRACTIONS

 *C              7.033-16 4.047-16 3.611-18 5.588-29
 *CH             5.731-14 3.507-14 6.436-16 2.701-25
 CH2             3.146-10 2.226-10 1.682-11 6.568-18
 CH3             4.3052-6 3.6439-6 1.5155-6 2.4703-9
 CH2OH           1.330 -9 1.029 -9 2.260-10 2.871-14
 CH3O            9.981-11 7.433-11 1.199-11 3.594-16
 CH4             3.8001-3 3.7613-3 7.1584-3 2.0785-2
 CH3OH           1.1525-7 1.0086-7 7.6755-8 3.9808-9
 *CO             4.9853-1 4.9839-1 4.9593-1 3.6195-1
 *CO2            7.8213-3 7.9712-3 1.0481-2 6.8095-2
 COOH            7.576 -9 6.145 -9 1.483 -9 1.248-12
 C2H             2.323-12 1.493-12 5.686-14 2.188-22
 C2H2,acetylene  4.5813-6 3.8529-6 1.7013-6 1.1994-9
 C2H2,vinylidene 1.341-10 9.492-11 9.897-12 4.203-18
 CH2CO,ketene    2.1153-6 1.8157-6 1.0649-6 6.3380-9
 O(CH)2O         2.330-11 1.813-11 5.270-12 1.931-15
 HO(CO)2OH       2.199-15 1.706-15 6.107-16 2.815-18
 C2H3,vinyl      1.547 -9 1.156 -9 2.356-10 2.240-15
 CH3CO,acetyl    2.071 -9 1.616 -9 5.302-10 1.255-13
 C2H4            4.8253-6 4.3232-6 4.9198-6 2.1989-7
 C2H4O,ethylen-o 1.114-12 8.588-13 3.140-13 9.467-17
 CH3CHO,ethanal  3.062 -8 2.637 -8 2.424 -8 7.522-10
 CH3COOH         3.342-10 2.871-10 2.907-10 3.439-11
 OHCH2COOH       3.226-14 2.466-14 1.064-14 3.578-17
 C2H5            2.693 -9 2.143 -9 1.119 -9 6.850-13
 C2H6            2.8470-7 2.6023-7 5.3305-7 2.5189-7
 C2H5OH          5.997-11 4.928-11 4.664-11 8.983-13
 CH3OCH3         3.370-13 2.642-13 1.690-13 4.435-16
 C2O             1.712-11 1.183-11 7.479-13 1.045-19
 C3H3,1-propynl  5.629-14 3.726-14 3.786-15 2.278-22
 C3H3,2-propynl  5.997-10 4.410-10 1.080-10 5.961-16
 C3H4,allene     1.771 -9 1.412 -9 8.393-10 3.132-13
 C3H4,propyne    4.575 -9 3.673 -9 2.308 -9 1.129-12
 C3H4,cyclo-     4.451-12 3.271-12 9.839-13 1.159-17
 C3H5,allyl      1.288-10 9.942-11 5.554-11 1.151-14
 C3H6,propylene  3.738 -9 3.151 -9 4.523 -9 7.858-11
 C3H6,cyclo-     1.060-11 8.631-12 9.347-12 4.095-14
 C3H6O,propylox  6.901-16 5.037-16 2.452-16 3.815-20
 C3H6O,acetone   1.020-11 8.429-12 1.148-11 3.092-13
 C3H6O,propanal  5.290-12 4.215-12 4.253-12 2.598-14
 C3H7,n-propyl   5.189-13 3.826-13 2.219-13 2.788-17
 C3H7,i-propyl   4.572-13 3.411-13 2.182-13 4.383-17
 C3H8            5.607-11 4.758-11 1.103-10 1.187-11
 C3H8O,1propanol 1.052-14 8.043-15 8.774-15 4.126-17
 C3H8O,2propanol 1.064-14 8.234-15 9.923-15 8.017-17
 C3O2            8.709-10 6.904-10 2.124-10 4.284-14
 C4H2,butadiyne  1.784-11 1.258-11 2.429-12 1.264-18
 C4H4,1,3-cyclo- 1.032-15 6.974-16 1.435-16 5.504-23
 C4H6,butadiene  1.419-11 1.106-11 1.149-11 9.562-15
 C4H6,1butyne    9.776-13 7.283-13 5.155-13 5.578-17
 C4H6,2butyne    8.859-13 6.756-13 5.802-13 1.636-16
 C4H6,cyclo-     2.485-14 1.869-14 1.432-14 2.451-18
 C4H8,1-butene   6.826-13 5.343-13 8.711-13 3.488-15
 C4H8,cis2-buten 2.905-13 2.299-13 4.099-13 2.522-15
 C4H8,tr2-butene 3.262-13 2.582-13 4.604-13 2.897-15
 C4H8,isobutene  3.689-13 2.935-13 5.472-13 4.307-15
 C4H8,cyclo-     2.890-16 2.201-16 2.867-16 3.889-19
 C4H9,n-butyl    2.336-16 1.617-16 1.168-16 5.462-21
 C4H9,i-butyl    1.339-16 9.348-17 7.220-17 4.796-21
 C4H9,s-butyl    1.545-16 1.071-16 7.845-17 3.793-21
 C4H10,n-butane  1.135-14 8.934-15 2.324-14 5.489-16
 C4H10,isobutane 3.817-15 3.028-15 8.418-15 2.816-16
 C5H6,1,3cyclo-  7.080-14 5.538-14 8.128-14 8.493-17
 C5H8,cyclo-     7.188-16 5.546-16 1.108-15 3.000-18
 C5H10,1-pentene 1.035-16 7.541-17 1.416-16 1.335-19
 C6H6            1.052-13 8.841-14 3.249-13 7.880-15
 C6H5OH,phenol   1.308-16 1.012-16 2.096-16 5.732-19
 C7H8            1.174-16 9.290-17 4.345-16 4.261-18
 *H              2.5819-5 2.2033-5 4.7196-6 2.6925-9
 HCO             7.442 -7 6.076 -7 1.379 -7 3.996-11
 HCCO            2.772-10 2.022-10 2.480-11 7.137-17
 HO2             1.380-15 8.840-16 2.162-17 7.320-25
 *H2             4.6190-1 4.6214-1 4.5762-1 4.1042-1
 HCHO,formaldehy 9.8405-6 8.7948-6 5.2391-6 1.5066-7
 HCOOH           5.9490-7 5.3153-7 3.5651-7 4.3886-8
 H2O             2.7891-2 2.7696-2 2.8794-2 6.2202-2
 H2O2            9.022-14 6.293-14 3.869-15 1.024-20
 *O              4.503-12 3.090-12 9.758-14 8.999-21
 *OH             1.200 -7 9.591 -8 1.330 -8 1.498-12
 *O2             1.201-13 8.211-14 2.808-15 7.417-22
 C(gr)           0.0000 0 0.0000 0 0.0000 0 7.6550-2

  * THERMODYNAMIC PROPERTIES FITTED TO 20000.K

 NOTE. WEIGHT FRACTION OF FUEL IN TOTAL FUELS AND OF OXIDANT IN TOTAL OXIDANTS

              THEORETICAL ROCKET PERFORMANCE ASSUMING EQUILIBRIUM

            COMPOSITION DURING EXPANSION FROM FINITE AREA COMBUSTOR

 Pin =  1469.6 PSIA
 Ac/At =  2.0000      Pinj/Pinf =  1.055983
 CASE = test___________

             REACTANT                    WT FRACTION      ENERGY      TEMP
                                          (SEE NOTE)     KJ/KG-MOL      K  
 FUEL        RP-1                         1.0000000    -24717.700    298.150
 OXIDANT     O2(L)                        1.0000000    -12979.000     90.170

 O/F=    1.17437  %FUEL= 45.990382  R,EQ.RATIO= 2.900000  PHI,EQ.RATIO= 2.900000

                 INJECTOR  COMB END  THROAT     EXIT
 Pinj/P            1.0000   1.1219   1.9074   57.573
 P, BAR            101.33   90.316   53.123   1.7599
 T, K             1733.97  1709.66  1544.35  1034.12
 RHO, KG/CU M    1.1050 1 9.9894 0 6.5756 0 3.6303-1
 H, KJ/KG        -1032.43 -1087.54 -1541.11 -3640.04
 U, KJ/KG        -1949.37 -1991.65 -2348.99 -4124.83
 G, KJ/KG        -22055.0 -21864.6 -20309.2 -16207.4
 S, KJ/(KG)(K)    12.1239  12.1528  12.1528  12.1528

 M, (1/n)          15.723   15.722   15.894   17.736
 MW, MOL WT        15.723   15.722   15.894   16.059
 (dLV/dLP)t      -1.02701 -1.02697 -1.03655 -1.09741
 (dLV/dLT)p        1.2152   1.2185   1.3327   2.5869
 Cp, KJ/(KG)(K)    3.1881   3.2120   3.8321  14.8101
 GAMMAs            1.2787   1.2779   1.2593   1.1292
 SON VEL,M/SEC     1082.8   1074.9   1008.6    739.9
 MACH NUMBER        0.000    0.309    1.000    3.087

 PERFORMANCE PARAMETERS

 Ae/At                      2.0000   1.0000   8.0000
 CSTAR, M/SEC               1446.7   1446.7   1446.7
 CF                         0.2295   0.6972   1.5785
 Ivac, M/SEC                3055.5   1809.6   2496.0
 Isp, M/SEC                  332.0   1008.6   2283.7

 MOLE FRACTIONS

 *C              2.035-16 1.153-16 1.195-18 4.637-29
 *CH             2.362-14 1.429-14 2.870-16 2.340-25
 CH2             2.363-10 1.662-10 1.244-11 6.044-18
 CH3             6.5228-6 5.5302-6 2.0283-6 2.4338-9
 CH2OH           1.052 -9 8.128-10 1.850-10 2.842-14
 CH3O            7.064-11 5.254-11 8.973-12 3.533-16
 CH4             1.0863-2 1.0848-2 1.6436-2 2.1833-2
 CH3OH           1.5602-7 1.3724-7 9.9088-8 4.1698-9
 *CO             5.0076-1 5.0065-1 4.9803-1 3.4523-1
 *CO2            5.6656-3 5.7803-3 8.4857-3 6.6824-2
 COOH            3.325 -9 2.687 -9 7.850-10 1.203-12
 C2H             2.301-12 1.471-12 5.069-14 1.907-22
 C2H2,acetylene  1.1920-5 1.0068-5 3.4305-6 1.1403-9
 C2H2,vinylidene 2.097-10 1.482-10 1.294-11 3.850-18
 CH2CO,ketene    3.9814-6 3.4345-6 1.7315-6 6.1967-9
 O(CH)2O         2.236-11 1.744-11 5.151-12 1.896-15
 HO(CO)2OH       9.708-16 7.554-16 3.491-16 2.898-18
 C2H3,vinyl      3.380 -9 2.534 -9 4.090-10 2.140-15
 CH3CO,acetyl    3.499 -9 2.743 -9 7.878-10 1.240-13
 C2H4            2.1371-5 1.9349-5 1.5539-5 2.2511-7
 C2H4O,ethylen-o 2.157-12 1.674-12 5.236-13 9.622-17
 CH3CHO,ethanal  8.222 -8 7.150 -8 5.322 -8 7.822-10
 CH3COOH         6.065-10 5.262-10 4.879-10 3.665-11
 OHCH2COOH       2.829-14 2.178-14 1.026-14 3.813-17
 C2H5            9.991 -9 8.024 -9 3.041 -9 7.050-13
 C2H6            1.8895-6 1.7541-6 2.3699-6 2.7524-7
 C2H5OH          1.981-10 1.648-10 1.219-10 9.831-13
 CH3OCH3         9.689-13 7.683-13 3.931-13 4.805-16
 C2O             1.203-11 8.265-12 5.292-13 9.189-20
 C3H3,1-propynl  1.786-13 1.187-13 8.572-15 2.112-22
 C3H3,2-propynl  2.595 -9 1.923 -9 3.183-10 5.654-16
 C3H4,allene     1.157 -8 9.336 -9 3.507 -9 3.116-13
 C3H4,propyne    3.048 -8 2.477 -8 9.806 -9 1.125-12
 C3H4,cyclo-     2.285-11 1.695-11 3.353-12 1.133-17
 C3H5,allyl      9.079-10 7.100-10 2.477-10 1.173-14
 C3H6,propylene  4.061 -8 3.485 -8 2.904 -8 8.406-11
 C3H6,cyclo-     1.041-10 8.626-11 5.522-11 4.351-14
 C3H6O,propylox  3.341-15 2.473-15 8.452-16 4.057-20
 C3H6O,acetone   7.116-11 5.982-11 5.376-11 3.373-13
 C3H6O,propanal  3.316-11 2.687-11 1.822-11 2.813-14
 C3H7,n-propyl   4.514-12 3.382-12 1.180-12 2.989-17
 C3H7,i-propyl   4.119-12 3.124-12 1.194-12 4.709-17
 C3H8            8.782-10 7.624-10 9.657-10 1.352-11
 C3H8O,1propanol 8.253-14 6.437-14 4.539-14 4.707-17
 C3H8O,2propanol 8.645-14 6.827-14 5.292-14 9.172-17
 C3O2            1.300 -9 1.034 -9 2.873-10 3.954-14
 C4H2,butadiyne  1.194-10 8.495-11 9.868-12 1.148-18
 C4H4,1,3-cyclo- 8.597-15 5.879-15 7.012-16 5.267-23
 C4H6,butadiene  2.547-10 2.028-10 1.079-10 1.003-14
 C4H6,1butyne    1.535-11 1.166-11 4.305-12 5.791-17
 C4H6,2butyne    1.490-11 1.159-11 5.132-12 1.707-16
 C4H6,cyclo-     4.010-13 3.075-13 1.226-13 2.550-18
 C4H8,1-butene   1.752-11 1.406-11 1.102-11 3.889-15
 C4H8,cis2-buten 7.699-12 6.250-12 5.327-12 2.818-15
 C4H8,tr2-butene 8.644-12 7.017-12 5.985-12 3.237-15
 C4H8,isobutene  9.931-12 8.105-12 7.208-12 4.818-15
 C4H8,cyclo-     6.844-15 5.344-15 3.396-15 4.314-19
 C4H9,n-butyl    4.960-15 3.517-15 1.259-15 6.118-21
 C4H9,i-butyl    2.912-15 2.082-15 7.939-16 5.382-21
 C4H9,s-butyl    3.297-15 2.342-15 8.483-16 4.249-21
 C4H9,t-butyl    8.974-16 6.542-16 2.887-16 3.865-21
 C4H10,n-butane  4.182-13 3.391-13 3.994-13 6.513-16
 C4H10,isobutane 1.440-13 1.177-13 1.476-13 3.347-16
 C5H6,1,3cyclo-  2.668-12 2.141-12 1.358-12 8.875-17
 C5H8,cyclo-     3.676-14 2.923-14 2.399-14 3.323-18
 C5H10,1-pentene 6.314-15 4.751-15 3.544-15 1.551-19
 C5H10,cyclo-    1.395-16 1.111-16 1.280-16 5.749-20
 C5H12,n-pentane 1.713-16 1.296-16 1.410-16 2.695-20
 C5H12,i-pentane 1.669-16 1.263-16 1.387-16 3.114-20
 C6H2            1.271-15 7.622-16 3.046-17 1.318-27
 C6H5,phenyl     1.903-15 1.358-15 3.339-16 6.550-23
 C6H6            1.019-11 8.842-12 1.148-11 8.324-15
 C6H5OH,phenol   6.761-15 5.392-15 4.621-15 6.095-19
 C7H7,benzyl     7.700-16 5.673-16 2.797-16 3.367-22
 C7H8            2.797-14 2.304-14 3.129-14 4.703-18
 C8H8,styrene    3.028-16 2.309-16 1.963-16 8.065-22
 *H              1.3654-5 1.1576-5 2.7391-6 2.5152-9
 HCO             4.889 -7 3.977 -7 9.663 -8 3.765-11
 HCCO            2.718-10 1.979-10 2.323-11 6.541-17
 HO2             1.451-16 9.157-17 3.592-18 6.742-25
 *H2             4.6398-1 4.6414-1 4.5549-1 4.0833-1
 HCHO,formaldehy 1.0033-5 8.9787-6 5.3268-6 1.4918-7
 HCOOH           4.1297-7 3.6971-7 2.7887-7 4.4557-8
 H2O             1.8659-2 1.8520-2 2.1523-2 6.3229-2
 H2O2            1.450-14 1.001-14 9.198-16 9.902-21
 *O              7.172-13 4.848-13 2.177-14 7.973-21
 *OH             3.564 -8 2.824 -8 5.012 -9 1.412-12
 *O2             1.288-14 8.674-15 4.749-16 6.721-22
 C(gr)           0.0000 0 0.0000 0 0.0000 0 9.4553-2

  * THERMODYNAMIC PROPERTIES FITTED TO 20000.K

 NOTE. WEIGHT FRACTION OF FUEL IN TOTAL FUELS AND OF OXIDANT IN TOTAL OXIDANTS