

         NASA-GLENN CHEMICAL EQUILIBRIUM PROGRAM CEA2, FEBRUARY 5, 2004
                   BY  BONNIE MCBRIDE AND SANFORD GORDON
      REFS: NASA RP-1311, PART I, 1994 AND NASA RP-1311, PART II, 1996

 *******************************************************************************

  
 ### CEA analysis performed on Wed 20-Apr-2022 12:09:52
  
 # Problem Type: "Rocket" (Finite Area Combustor)
  
 prob case=test___________2464 ro equilibrium    fac
  
 !Contraction Ratio:
 ac/at=2
  
 # Pressure (1 value):
 p,bar= 22
 # Supersonic Area Ratio (1 value):
 supar= 2.62
  
 # Equivalence based on Fuel/Oxid. wt ratio (Eq 9.19*) (11 values):
 phi= 3, 3.1, 3.2, 3.3, 3.4, 3.5, 3.6, 3.7, 3.8, 3.9, 4
  
 # You selected the following fuels and oxidizers:
 reac
 fuel RP-1             mole=100.0000
 oxid O2(L)            mole=100.0000
  
 # You selected these options for output:
 # short version of output
 output short
 # Proportions of any products will be expressed as Mole Fractions.
 # Heat will be expressed as siunits
 output siunits
 # Trace variable:
 output trace=1e-16
  
 # Input prepared by this script:/var/www/sites/cearun.grc.nasa.gov/cgi-bin/CEARU
 N/prepareInputFile.cgi
  
 ### IMPORTANT:  The following line is the end of your CEA input file!
 end

              THEORETICAL ROCKET PERFORMANCE ASSUMING EQUILIBRIUM

            COMPOSITION DURING EXPANSION FROM FINITE AREA COMBUSTOR

 Pin =   319.1 PSIA
 Ac/At =  2.0000      Pinj/Pinf =  1.056231
 CASE = test___________

             REACTANT                       MOLES         ENERGY      TEMP
                                                         KJ/KG-MOL      K
 FUEL        RP-1                       100.0000000    -24717.700    298.150
 OXIDANT     O2(L)                      100.0000000    -12979.000     90.170

 O/F=    1.13522  %FUEL= 46.833536  R,EQ.RATIO= 3.000000  PHI,EQ.RATIO= 3.000000

                 INJECTOR  COMB END  THROAT     EXIT
 Pinj/P            1.0000   1.1224   1.9090   13.009
 P, BAR            22.000   19.600   11.524   1.6912
 T, K             1610.28  1587.59  1425.90  1095.25
 RHO, KG/CU M    2.5283e0 2.2848e0 1.5076e0 3.0452-1
 H, KJ/KG        -1043.93 -1096.44 -1526.42 -2766.79
 U, KJ/KG        -1914.08 -1954.28 -2290.82 -3322.16
 G, KJ/KG        -21813.5 -21620.3 -19960.0 -16925.8
 S, KJ/(KG)(K)    12.8981  12.9277  12.9277  12.9277

 M, (1/n)          15.387   15.388   15.510   16.397
 MW, MOL WT        15.356   15.351   15.410   15.518
 (dLV/dLP)t      -1.01327 -1.01334 -1.02056 -1.06254
 (dLV/dLT)p        1.1112   1.1143   1.2095   1.9593
 Cp, KJ/(KG)(K)    2.7997   2.8210   3.4331   9.9371
 GAMMAs            1.2904   1.2894   1.2624   1.1539
 SON VEL,M/SEC     1059.6   1051.7    982.3    800.5
 MACH NUMBER        0.000    0.308    1.000    2.319

 PERFORMANCE PARAMETERS

 Ae/At                      2.0000   1.0000   2.6200
 CSTAR, M/SEC               1406.4   1406.4   1406.4
 CF                         0.2304   0.6985   1.3199
 Ivac, M/SEC                2971.0   1760.5   2155.5
 Isp, M/SEC                  324.1    982.3   1856.3

 MOLE FRACTIONS

 *CH             4.310-15 2.422-15 1.901-17 1.225-23
 CH2             6.308-11 4.192-11 1.540-12 8.102-17
 CH3             3.0916-6 2.5269-6 5.9526-7 6.5596-9
 CH2OH           7.137-11 5.472-11 1.150-11 6.128-14
 CH3O            3.904-12 2.875-12 4.386-13 9.504-16
 CH4             8.0876-3 7.9356-3 9.9264-3 1.3495-2
 CH3OH           1.3808-8 1.2241-8 1.0063-8 2.6196-9
 *CO             5.0289-1 5.0243-1 4.9625-1 4.2237-1
 *CO2            1.5014-3 1.5912-3 3.7856-3 3.0504-2
 COOH            1.622-10 1.342-10 5.289-11 1.750-12
 C2H             9.772-13 5.675-13 5.804-15 8.182-21
 C2H2,acetylene  1.4768-5 1.1650-5 1.7005-6 5.3743-9
 C2H2,vinylidene 9.923-11 6.453-11 1.981-12 5.973-17
 CH2CO,ketene    1.3056-6 1.0928-6 3.8342-7 1.1057-8
 O(CH)2O         1.006-12 7.838-13 2.309-13 2.789-15
 C2H3,vinyl      1.424 -9 9.920-10 6.439-11 1.536-14
 CH3CO,acetyl    4.440-10 3.368-10 6.527-11 2.812-13
 C2H4            1.6153-5 1.3866-5 5.8890-6 3.1771-7
 C2H4O,ethylen-o 1.676-13 1.264-13 2.828-14 1.598-16
 CH3CHO,ethanal  1.181 -8 1.007 -8 6.039 -9 6.216-10
 CH3COOH         2.037-11 1.798-11 2.150-11 1.235-11
 OHCH2COOH       1.179-16 9.489-17 8.093-17 1.199-17
 C2H5            2.560 -9 1.939 -9 3.655-10 1.506-12
 C2H6            6.8598-7 6.1084-7 5.1480-7 1.5444-7
 C2H5OH          9.416-12 7.727-12 5.046-12 4.882-13
 CH3OCH3         3.548-14 2.764-14 1.185-14 3.285-16
 C2O             2.754-12 1.785-12 5.438-14 1.552-18
 C3H3,1-propynl  6.771-14 4.028-14 7.340-16 3.988-21
 C3H3,2-propynl  1.769 -9 1.184 -9 5.573-11 5.157-15
 C3H4,allene     8.114 -9 5.987 -9 7.525-10 1.102-12
 C3H4,propyne    2.219 -8 1.650 -8 2.200 -9 3.815-12
 C3H4,cyclo-     1.018-11 6.858-12 4.148-13 6.960-17
 C3H5,allyl      3.482-10 2.496-10 3.026-11 3.457-14
 C3H6,propylene  1.664 -8 1.325 -8 4.528 -9 9.336-11
 C3H6,cyclo-     3.537-11 2.712-11 6.884-12 5.998-14
 C3H6O,propylox  1.460-16 1.028-16 1.964-17 5.062-20
 C3H6O,acetone   6.169-12 4.982-12 2.855-12 1.858-13
 C3H6O,propanal  2.354-12 1.827-12 7.612-13 1.956-14
 C3H7,n-propyl   5.761-13 3.979-13 5.267-14 5.557-17
 C3H7,i-propyl   5.611-13 3.926-13 5.761-14 8.149-17
 C3H8            1.609-10 1.309-10 7.915-11 6.491-12
 C3H8O,1propanol 2.003-15 1.506-15 7.180-16 1.983-17
 C3H8O,2propanol 2.243-15 1.709-15 9.095-16 3.531-17
 C3O2            2.678-10 2.055-10 3.622-11 1.293-13
 C4H2,butadiyne  1.745-10 1.083-10 2.291-12 2.338-17
 C4H4,1,3-cyclo- 4.254-15 2.554-15 6.106-17 6.527-22
 C4H6,butadiene  1.205-10 8.618-11 1.250-11 2.097-14
 C4H6,1butyne    5.618-12 3.815-12 3.627-13 1.689-16
 C4H6,2butyne    6.202-12 4.321-12 5.050-13 4.283-16
 C4H6,cyclo-     1.548-13 1.063-13 1.107-14 6.887-18
 C4H8,1-butene   3.630-12 2.643-12 6.500-13 3.691-15
 C4H8,cis2-buten 1.693-12 1.248-12 3.372-13 2.504-15
 C4H8,tr2-butene 1.902-12 1.401-12 3.795-13 2.860-15
 C4H8,isobutene  2.250-12 1.668-12 4.736-13 4.107-15
 C4H8,cyclo-     1.221-15 8.633-16 1.678-16 4.848-19
 C4H9,n-butyl    3.404-16 2.177-16 2.292-17 8.996-21
 C4H9,i-butyl    2.090-16 1.348-16 1.527-17 7.472-21
 C4H9,s-butyl    2.283-16 1.462-16 1.558-17 6.236-21
 C4H10,n-butane  3.841-14 2.855-14 1.227-14 2.690-16
 C4H10,isobutane 1.382-14 1.037-14 4.788-15 1.306-16
 C5H6,1,3cyclo-  2.273-12 1.595-12 1.986-13 2.094-16
 C5H8,cyclo-     1.249-14 8.764-15 1.606-15 3.902-18
 C5H10,1-pentene 6.678-16 4.453-16 7.961-17 1.258-19
 C6H2            2.203-15 1.077-15 3.341-18 1.146-25
 C6H5,phenyl     2.287-15 1.368-15 3.876-17 5.837-22
 C6H6            2.289-11 1.702-11 3.371-12 1.391-14
 C6H5OH,phenol   2.271-15 1.598-15 3.038-16 7.651-19
 C7H7,benzyl     7.984-16 4.866-16 2.362-17 1.316-21
 C7H8            3.428-14 2.367-14 3.807-15 6.149-18
 C8H8,styrene    4.231-16 2.617-16 1.737-17 2.050-21
 *H              8.9604-6 7.4627-6 1.3990-6 1.1652-8
 HCO             1.044 -7 8.387 -8 1.736 -8 1.226-10
 HCCO            5.512-11 3.822-11 2.429-12 5.192-16
 *H2             4.8108-1 4.8112-1 4.7535-1 4.4772-1
 HCHO,formaldehy 2.3236-6 2.0790-6 1.2482-6 1.7733-7
 HCOOH           2.2689-8 2.1087-8 2.5843-8 2.2038-8
 H2O             4.3774-3 4.5002-3 8.2642-3 3.2282-2
 H2O2            1.132-16 8.155-17 1.278-17 2.358-20
 *O              5.052-14 3.399-14 1.405-15 1.045-19
 *OH             3.833 -9 3.075 -9 6.343-10 4.557-12
 *O2             2.096-16 1.456-16 1.157-17 3.979-21
 C(gr)           2.0113-3 2.3865-3 6.4095-3 5.3624-2

  * THERMODYNAMIC PROPERTIES FITTED TO 20000.K

              THEORETICAL ROCKET PERFORMANCE ASSUMING EQUILIBRIUM

            COMPOSITION DURING EXPANSION FROM FINITE AREA COMBUSTOR

 Pin =   319.1 PSIA
 Ac/At =  2.0000      Pinj/Pinf =  1.055909
 CASE = test___________

             REACTANT                       MOLES         ENERGY      TEMP
                                                         KJ/KG-MOL      K
 FUEL        RP-1                       100.0000000    -24717.700    298.150
 OXIDANT     O2(L)                      100.0000000    -12979.000     90.170

 O/F=    1.09860  %FUEL= 47.650769  R,EQ.RATIO= 3.100000  PHI,EQ.RATIO= 3.100000

                 INJECTOR  COMB END  THROAT     EXIT
 Pinj/P            1.0000   1.1217   1.9014   12.886
 P, BAR            22.000   19.613   11.571   1.7072
 T, K             1577.15  1555.46  1404.17  1089.96
 RHO, KG/CU M    2.5863e0 2.3381e0 1.5416e0 3.1011-1
 H, KJ/KG        -1055.06 -1106.11 -1524.74 -2745.84
 U, KJ/KG        -1905.70 -1944.97 -2275.31 -3296.37
 G, KJ/KG        -21321.7 -21139.7 -19609.8 -16784.0
 S, KJ/(KG)(K)    12.8502  12.8795  12.8795  12.8795

 M, (1/n)          15.416   15.417   15.555   16.462
 MW, MOL WT        15.131   15.125   15.186   15.279
 (dLV/dLP)t      -1.01581 -1.01591 -1.02391 -1.06546
 (dLV/dLT)p        1.1363   1.1401   1.2485   2.0050
 Cp, KJ/(KG)(K)    2.9573   2.9858   3.7053  10.3147
 GAMMAs            1.2815   1.2802   1.2515   1.1513
 SON VEL,M/SEC     1044.1   1036.3    969.2    796.1
 MACH NUMBER        0.000    0.308    1.000    2.310

 PERFORMANCE PARAMETERS

 Ae/At                      2.0000   1.0000   2.6200
 CSTAR, M/SEC               1394.5   1394.5   1394.5
 CF                         0.2291   0.6950   1.3187
 Ivac, M/SEC                2944.9   1743.6   2138.3
 Isp, M/SEC                  319.5    969.2   1838.9

 MOLE FRACTIONS

 *CH             1.679-15 9.456-16 8.630-18 8.765-24
 CH2             3.444-11 2.292-11 9.281-13 6.560-17
 CH3             2.5044-6 2.0485-6 4.9955-7 6.1313-9
 CH2OH           6.134-11 4.710-11 1.014-11 5.789-14
 CH3O            3.162-12 2.332-12 3.690-13 8.816-16
 CH4             9.3829-3 9.2106-3 1.1280-2 1.4405-2
 CH3OH           1.6085-8 1.4274-8 1.1473-8 2.7712-9
 *CO             4.8609-1 4.8554-1 4.7830-1 4.0332-1
 *CO2            1.8449-3 1.9554-3 4.4636-3 3.1339-2
 COOH            1.516-10 1.256-10 4.983-11 1.655-12
 C2H             3.997-13 2.325-13 2.743-15 5.950-21
 C2H2,acetylene  1.0372-5 8.1885-6 1.2638-6 4.7412-9
 C2H2,vinylidene 5.246-11 3.416-11 1.161-12 4.779-17
 CH2CO,ketene    1.1662-6 9.7692-7 3.4829-7 1.0483-8
 O(CH)2O         9.426-13 7.354-13 2.186-13 2.665-15
 C2H3,vinyl      9.119-10 6.360-10 4.442-11 1.325-14
 CH3CO,acetyl    3.758-10 2.855-10 5.692-11 2.645-13
 C2H4            1.5396-5 1.3226-5 5.6765-6 3.1692-7
 C2H4O,ethylen-o 1.539-13 1.162-13 2.648-14 1.560-16
 CH3CHO,ethanal  1.299 -8 1.108 -8 6.564 -9 6.450-10
 CH3COOH         2.749-11 2.431-11 2.780-11 1.365-11
 OHCH2COOH       1.619-16 1.307-16 1.064-16 1.321-17
 C2H5            2.223 -9 1.686 -9 3.271-10 1.469-12
 C2H6            8.2710-7 7.3729-7 6.0738-7 1.7018-7
 C2H5OH          1.174-11 9.650-12 6.128-12 5.392-13
 CH3OCH3         4.096-14 3.196-14 1.350-14 3.534-16
 C2O             1.410-12 9.154-13 3.090-14 1.194-18
 C3H3,1-propynl  3.439-14 2.050-14 4.173-16 3.177-21
 C3H3,2-propynl  1.068 -9 7.158-10 3.661-11 4.361-15
 C3H4,allene     6.191 -9 4.575 -9 6.029-10 1.019-12
 C3H4,propyne    1.712 -8 1.274 -8 1.778 -9 3.541-12
 C3H4,cyclo-     6.796-12 4.586-12 2.974-13 6.154-17
 C3H5,allyl      2.788-10 2.002-10 2.533-11 3.285-14
 C3H6,propylene  1.702 -8 1.357 -8 4.658 -9 9.727-11
 C3H6,cyclo-     3.424-11 2.630-11 6.771-12 6.139-14
 C3H6O,propylox  1.453-16 1.026-16 1.979-17 5.183-20
 C3H6O,acetone   7.510-12 6.076-12 3.399-12 2.034-13
 C3H6O,propanal  2.704-12 2.102-12 8.635-13 2.102-14
 C3H7,n-propyl   5.234-13 3.623-13 4.926-14 5.616-17
 C3H7,i-propyl   5.196-13 3.643-13 5.472-14 8.285-17
 C3H8            2.037-10 1.661-10 9.793-11 7.420-12
 C3H8O,1propanol 2.632-15 1.984-15 9.168-16 2.273-17
 C3H8O,2propanol 3.006-15 2.297-15 1.181-15 4.078-17
 C3O2            2.047-10 1.572-10 2.875-11 1.130-13
 C4H2,butadiyne  8.613-11 5.355-11 1.269-12 1.829-17
 C4H4,1,3-cyclo- 2.398-15 1.442-15 3.802-17 5.447-22
 C4H6,butadiene  1.053-10 7.545-11 1.129-11 2.074-14
 C4H6,1butyne    4.548-12 3.094-12 3.072-13 1.625-16
 C4H6,2butyne    5.214-12 3.640-12 4.412-13 4.173-16
 C4H6,cyclo-     1.274-13 8.763-14 9.509-15 6.670-18
 C4H8,1-butene   3.902-12 2.847-12 7.015-13 3.989-15
 C4H8,cis2-buten 1.852-12 1.367-12 3.691-13 2.721-15
 C4H8,tr2-butene 2.081-12 1.536-12 4.156-13 3.110-15
 C4H8,isobutene  2.483-12 1.844-12 5.223-13 4.478-15
 C4H8,cyclo-     1.257-15 8.906-16 1.748-16 5.168-19
 C4H9,n-butyl    3.311-16 2.124-16 2.284-17 9.492-21
 C4H9,i-butyl    2.060-16 1.333-16 1.538-17 7.922-21
 C4H9,s-butyl    2.226-16 1.430-16 1.554-17 6.581-21
 C4H10,n-butane  5.102-14 3.802-14 1.590-14 3.188-16
 C4H10,isobutane 1.860-14 1.399-14 6.274-15 1.555-16
 C5H6,1,3cyclo-  1.932-12 1.359-12 1.753-13 2.051-16
 C5H8,cyclo-     1.272-14 8.945-15 1.658-15 4.144-18
 C5H10,1-pentene 7.562-16 5.057-16 9.025-17 1.411-19
 C6H2            7.660-16 3.755-16 1.383-18 7.959-26
 C6H5,phenyl     1.404-15 8.424-16 2.600-17 5.065-22
 C6H6            2.118-11 1.578-11 3.192-12 1.401-14
 C6H5OH,phenol   2.259-15 1.594-15 3.059-16 7.831-19
 C7H7,benzyl     6.036-16 3.689-16 1.898-17 1.252-21
 C7H8            3.409-14 2.360-14 3.852-15 6.474-18
 C8H8,styrene    3.580-16 2.221-16 1.537-17 2.044-21
 *H              6.2260-6 5.1890-6 1.0296-6 1.0170-8
 HCO             8.017 -8 6.444 -8 1.386 -8 1.093-10
 HCCO            3.411-11 2.368-11 1.621-12 4.303-16
 *H2             4.7886-1 4.7889-1 4.7259-1 4.4517-1
 HCHO,formaldehy 2.2891-6 2.0494-6 1.2304-6 1.7383-7
 HCOOH           2.7554-8 2.5637-8 3.0405-8 2.3033-8
 H2O             5.2892-3 5.4382-3 9.6538-3 3.3917-2
 *O              2.732-14 1.841-14 8.370-16 8.211-20
 *OH             2.939 -9 2.360 -9 5.064-10 4.066-12
 *O2             1.384-16 9.631-17 8.142-18 3.312-21
 C(gr)           1.8495-2 1.8930-2 2.3699-2 7.1855-2

  * THERMODYNAMIC PROPERTIES FITTED TO 20000.K

              THEORETICAL ROCKET PERFORMANCE ASSUMING EQUILIBRIUM

            COMPOSITION DURING EXPANSION FROM FINITE AREA COMBUSTOR

 Pin =   319.1 PSIA
 Ac/At =  2.0000      Pinj/Pinf =  1.055598
 CASE = test___________

             REACTANT                       MOLES         ENERGY      TEMP
                                                         KJ/KG-MOL      K
 FUEL        RP-1                       100.0000000    -24717.700    298.150
 OXIDANT     O2(L)                      100.0000000    -12979.000     90.170

 O/F=    1.06427  %FUEL= 48.443259  R,EQ.RATIO= 3.200000  PHI,EQ.RATIO= 3.200000

                 INJECTOR  COMB END  THROAT     EXIT
 Pinj/P            1.0000   1.1210   1.8943   12.778
 P, BAR            22.000   19.625   11.614   1.7217
 T, K             1547.10  1526.35  1384.61  1084.82
 RHO, KG/CU M    2.6425e0 2.3896e0 1.5742e0 3.1547-1
 H, KJ/KG        -1065.87 -1115.55 -1523.79 -2726.96
 U, KJ/KG        -1898.41 -1936.82 -2261.53 -3272.70
 G, KJ/KG        -20872.4 -20700.9 -19290.4 -16646.8
 S, KJ/(KG)(K)    12.8024  12.8315  12.8315  12.8315

 M, (1/n)          15.451   15.453   15.605   16.527
 MW, MOL WT        14.924   14.918   14.979   15.056
 (dLV/dLP)t      -1.01861 -1.01875 -1.02743 -1.06829
 (dLV/dLT)p        1.1647   1.1694   1.2903   2.0492
 Cp, KJ/(KG)(K)    3.1368   3.1732   3.9977  10.6764
 GAMMAs            1.2725   1.2709   1.2414   1.1489
 SON VEL,M/SEC     1029.3   1021.6    957.0    791.8
 MACH NUMBER        0.000    0.309    1.000    2.302

 PERFORMANCE PARAMETERS

 Ae/At                      2.0000   1.0000   2.6200
 CSTAR, M/SEC               1383.4   1383.4   1383.4
 CF                         0.2279   0.6918   1.3175
 Ivac, M/SEC                2920.6   1727.9   2122.1
 Isp, M/SEC                  315.2    957.0   1822.7

 MOLE FRACTIONS

 *CH             6.893-16 3.895-16 4.146-18 6.313-24
 CH2             1.943-11 1.296-11 5.798-13 5.331-17
 CH3             2.0503-6 1.6789-6 4.2422-7 5.7330-9
 CH2OH           5.308-11 4.081-11 9.012-12 5.462-14
 CH3O            2.588-12 1.912-12 3.136-13 8.170-16
 CH4             1.0784-2 1.0588-2 1.2690-2 1.5333-2
 CH3OH           1.8542-8 1.6466-8 1.2927-8 2.9195-9
 *CO             4.7012-1 4.6949-1 4.6120-1 3.8537-1
 *CO2            2.2373-3 2.3702-3 5.1817-3 3.2127-2
 COOH            1.421-10 1.178-10 4.699-11 1.562-12
 C2H             1.717-13 1.002-13 1.368-15 4.355-21
 C2H2,acetylene  7.4232-6 5.8682-6 9.5893-7 4.1917-9
 C2H2,vinylidene 2.871-11 1.874-11 7.069-13 3.838-17
 CH2CO,ketene    1.0465-6 8.7753-7 3.1787-7 9.9325-9
 O(CH)2O         8.844-13 6.910-13 2.071-13 2.542-15
 C2H3,vinyl      5.979-10 4.178-10 3.145-11 1.145-14
 CH3CO,acetyl    3.205-10 2.440-10 5.002-11 2.485-13
 C2H4            1.4694-5 1.2634-5 5.4813-6 3.1564-7
 C2H4O,ethylen-o 1.417-13 1.072-13 2.485-14 1.520-16
 CH3CHO,ethanal  1.418 -8 1.211 -8 7.075 -9 6.668-10
 CH3COOH         3.641-11 3.223-11 3.515-11 1.498-11
 OHCH2COOH       2.180-16 1.763-16 1.364-16 1.445-17
 C2H5            1.942 -9 1.476 -9 2.947-10 1.431-12
 C2H6            9.8536-7 8.7902-7 7.0739-7 1.8662-7
 C2H5OH          1.442-11 1.187-11 7.321-12 5.918-13
 CH3OCH3         4.681-14 3.659-14 1.519-14 3.780-16
 C2O             7.483-13 4.871-13 1.826-14 9.237-19
 C3H3,1-propynl  1.811-14 1.083-14 2.470-16 2.540-21
 C3H3,2-propynl  6.625-10 4.450-10 2.478-11 3.696-15
 C3H4,allene     4.790 -9 3.546 -9 4.904-10 9.427-13
 C3H4,propyne    1.338 -8 9.977 -9 1.458 -9 3.286-12
 C3H4,cyclo-     4.635-12 3.135-12 2.183-13 5.444-17
 C3H5,allyl      2.257-10 1.624-10 2.146-11 3.118-14
 C3H6,propylene  1.735 -8 1.385 -8 4.777 -9 1.010-10
 C3H6,cyclo-     3.316-11 2.552-11 6.662-12 6.262-14
 C3H6O,propylox  1.444-16 1.022-16 1.989-17 5.281-20
 C3H6O,acetone   9.024-12 7.310-12 3.986-12 2.214-13
 C3H6O,propanal  3.074-12 2.394-12 9.684-13 2.245-14
 C3H7,n-propyl   4.773-13 3.312-13 4.625-14 5.654-17
 C3H7,i-propyl   4.824-13 3.390-13 5.212-14 8.390-17
 C3H8            2.542-10 2.076-10 1.192-10 8.422-12
 C3H8O,1propanol 3.398-15 2.566-15 1.147-15 2.584-17
 C3H8O,2propanol 3.954-15 3.027-15 1.501-15 4.669-17
 C3O2            1.585-10 1.219-10 2.313-11 9.887-14
 C4H2,butadiyne  4.419-11 2.755-11 7.335-13 1.437-17
 C4H4,1,3-cyclo- 1.393-15 8.409-16 2.448-17 4.554-22
 C4H6,butadiene  9.256-11 6.649-11 1.027-11 2.046-14
 C4H6,1butyne    3.719-12 2.537-12 2.631-13 1.561-16
 C4H6,2butyne    4.419-12 3.092-12 3.889-13 4.056-16
 C4H6,cyclo-     1.058-13 7.295-14 8.253-15 6.444-18
 C4H8,1-butene   4.170-12 3.049-12 7.522-13 4.286-15
 C4H8,cis2-buten 2.012-12 1.488-12 4.009-13 2.939-15
 C4H8,tr2-butene 2.261-12 1.672-12 4.516-13 3.361-15
 C4H8,isobutene  2.720-12 2.024-12 5.715-13 4.853-15
 C4H8,cyclo-     1.289-15 9.157-16 1.814-16 5.477-19
 C4H9,n-butyl    3.219-16 2.071-16 2.274-17 9.954-21
 C4H9,i-butyl    2.027-16 1.316-16 1.547-17 8.346-21
 C4H9,s-butyl    2.169-16 1.397-16 1.550-17 6.903-21
 C4H10,n-butane  6.656-14 4.971-14 2.020-14 3.744-16
 C4H10,isobutane 2.457-14 1.851-14 8.053-15 1.835-16
 C5H6,1,3cyclo-  1.655-12 1.166-12 1.560-13 2.003-16
 C5H8,cyclo-     1.291-14 9.104-15 1.707-15 4.377-18
 C5H10,1-pentene 8.485-16 5.690-16 1.013-16 1.570-19
 C6H2            2.823-16 1.390-16 6.097-19 5.564-26
 C6H5,phenyl     8.850-16 5.326-16 1.794-17 4.397-22
 C6H6            1.966-11 1.467-11 3.032-12 1.407-14
 C6H5OH,phenol   2.244-15 1.587-15 3.072-16 7.975-19
 C7H7,benzyl     4.628-16 2.838-16 1.548-17 1.187-21
 C7H8            3.386-14 2.350-14 3.891-15 6.779-18
 C8H8,styrene    3.052-16 1.899-16 1.371-17 2.028-21
 *H              4.4136-6 3.6831-6 7.7436-7 8.9044-9
 HCO             6.237 -8 5.019 -8 1.122 -8 9.760-11
 HCCO            2.165-11 1.506-11 1.111-12 3.575-16
 *H2             4.7642-1 4.7645-1 4.6969-1 4.4260-1
 HCHO,formaldehy 2.2535-6 2.0187-6 1.2113-6 1.7017-7
 HCOOH           3.3040-8 3.0760-8 3.5230-8 2.3979-8
 H2O             6.3139-3 6.4899-3 1.1125-2 3.5543-2
 *O              1.527-14 1.032-14 5.168-16 6.480-20
 *OH             2.284 -9 1.837 -9 4.100-10 3.633-12
 C(gr)           3.4089-2 3.4588-2 4.0107-2 8.9029-2

  * THERMODYNAMIC PROPERTIES FITTED TO 20000.K

              THEORETICAL ROCKET PERFORMANCE ASSUMING EQUILIBRIUM

            COMPOSITION DURING EXPANSION FROM FINITE AREA COMBUSTOR

 Pin =   319.1 PSIA
 Ac/At =  2.0000      Pinj/Pinf =  1.055301
 CASE = test___________

             REACTANT                       MOLES         ENERGY      TEMP
                                                         KJ/KG-MOL      K
 FUEL        RP-1                       100.0000000    -24717.700    298.150
 OXIDANT     O2(L)                      100.0000000    -12979.000     90.170

 O/F=    1.03202  %FUEL= 49.212112  R,EQ.RATIO= 3.300000  PHI,EQ.RATIO= 3.300000

                 INJECTOR  COMB END  THROAT     EXIT
 Pinj/P            1.0000   1.1203   1.8879   12.682
 P, BAR            22.000   19.637   11.653   1.7347
 T, K             1519.90  1500.03  1366.95  1079.82
 RHO, KG/CU M    2.6968e0 2.4395e0 1.6055e0 3.2062-1
 H, KJ/KG        -1076.35 -1124.77 -1523.51 -2709.88
 U, KJ/KG        -1892.12 -1929.75 -2249.33 -3250.93
 G, KJ/KG        -20462.4 -20300.7 -18998.3 -16514.1
 S, KJ/(KG)(K)    12.7549  12.7838  12.7838  12.7838

 M, (1/n)          15.491   15.493   15.659   16.594
 MW, MOL WT        14.734   14.727   14.787   14.848
 (dLV/dLP)t      -1.02166 -1.02182 -1.03107 -1.07102
 (dLV/dLT)p        1.1964   1.2019   1.3342   2.0918
 Cp, KJ/(KG)(K)    3.3374   3.3823   4.3062  11.0208
 GAMMAs            1.2635   1.2617   1.2322   1.1467
 SON VEL,M/SEC     1015.2   1007.8    945.7    787.7
 MACH NUMBER        0.000    0.309    1.000    2.295

 PERFORMANCE PARAMETERS

 Ae/At                      2.0000   1.0000   2.6200
 CSTAR, M/SEC               1373.0   1373.0   1373.0
 CF                         0.2267   0.6888   1.3164
 Ivac, M/SEC                2897.9   1713.2   2106.8
 Isp, M/SEC                  311.2    945.7   1807.5

 MOLE FRACTIONS

 *CH             2.985-16 1.694-16 2.100-18 4.578-24
 CH2             1.134-11 7.590-12 3.745-13 4.349-17
 CH3             1.6973-6 1.3918-6 3.6425-7 5.3631-9
 CH2OH           4.624-11 3.561-11 8.055-12 5.147-14
 CH3O            2.140-12 1.585-12 2.692-13 7.565-16
 CH4             1.2278-2 1.2055-2 1.4143-2 1.6278-2
 CH3OH           2.1149-8 1.8788-8 1.4405-8 3.0640-9
 *CO             4.5490-1 4.5418-1 4.4487-1 3.6844-1
 *CO2            2.6755-3 2.8319-3 5.9285-3 3.2865-2
 COOH            1.333-10 1.107-10 4.433-11 1.473-12
 C2H             7.761-14 4.550-14 7.170-16 3.208-21
 C2H2,acetylene  5.4169-6 4.2899-6 7.4178-7 3.7139-9
 C2H2,vinylidene 1.628-11 1.066-11 4.458-13 3.095-17
 CH2CO,ketene    9.4365-7 7.9209-7 2.9137-7 9.4059-9
 O(CH)2O         8.309-13 6.502-13 1.962-13 2.419-15
 C2H3,vinyl      4.017-10 2.815-10 2.281-11 9.913-15
 CH3CO,acetyl    2.756-10 2.101-10 4.427-11 2.333-13
 C2H4            1.4048-5 1.2089-5 5.3017-6 3.1393-7
 C2H4O,ethylen-o 1.309-13 9.922-14 2.338-14 1.477-16
 CH3CHO,ethanal  1.537 -8 1.314 -8 7.567 -9 6.869-10
 CH3COOH         4.729-11 4.188-11 4.353-11 1.634-11
 OHCH2COOH       2.873-16 2.325-16 1.709-16 1.569-17
 C2H5            1.709 -9 1.301 -9 2.674-10 1.391-12
 C2H6            1.1598-6 1.0352-6 8.1403-7 2.0374-7
 C2H5OH          1.746-11 1.439-11 8.613-12 6.457-13
 CH3OCH3         5.294-14 4.143-14 1.692-14 4.021-16
 C2O             4.122-13 2.692-13 1.118-14 7.177-19
 C3H3,1-propynl  9.908-15 5.946-15 1.517-16 2.037-21
 C3H3,2-propynl  4.226-10 2.847-10 1.724-11 3.140-15
 C3H4,allene     3.760 -9 2.789 -9 4.046-10 8.719-13
 C3H4,propyne    1.060 -8 7.923 -9 1.212 -9 3.050-12
 C3H4,cyclo-     3.232-12 2.192-12 1.637-13 4.820-17
 C3H5,allyl      1.849-10 1.333-10 1.839-11 2.955-14
 C3H6,propylene  1.765 -8 1.411 -8 4.885 -9 1.044-10
 C3H6,cyclo-     3.213-11 2.477-11 6.556-12 6.367-14
 C3H6O,propylox  1.433-16 1.016-16 1.994-17 5.358-20
 C3H6O,acetone   1.070-11 8.675-12 4.609-12 2.396-13
 C3H6O,propanal  3.460-12 2.699-12 1.074-12 2.385-14
 C3H7,n-propyl   4.371-13 3.040-13 4.358-14 5.673-17
 C3H7,i-propyl   4.492-13 3.164-13 4.977-14 8.465-17
 C3H8            3.124-10 2.554-10 1.429-10 9.499-12
 C3H8O,1propanol 4.308-15 3.258-15 1.409-15 2.915-17
 C3H8O,2propanol 5.103-15 3.912-15 1.871-15 5.304-17
 C3O2            1.243-10 9.581-11 1.884-11 8.657-14
 C4H2,butadiyne  2.359-11 1.476-11 4.408-13 1.134-17
 C4H4,1,3-cyclo- 8.359-16 5.064-16 1.626-17 3.815-22
 C4H6,butadiene  8.192-11 5.898-11 9.398-12 2.013-14
 C4H6,1butyne    3.075-12 2.103-12 2.277-13 1.496-16
 C4H6,2butyne    3.778-12 2.649-12 3.457-13 3.934-16
 C4H6,cyclo-     8.874-14 6.136-14 7.230-15 6.214-18
 C4H8,1-butene   4.430-12 3.246-12 8.017-13 4.581-15
 C4H8,cis2-buten 2.171-12 1.609-12 4.325-13 3.158-15
 C4H8,tr2-butene 2.440-12 1.808-12 4.874-13 3.612-15
 C4H8,isobutene  2.958-12 2.206-12 6.206-13 5.231-15
 C4H8,cyclo-     1.319-15 9.386-16 1.876-16 5.776-19
 C4H9,n-butyl    3.129-16 2.019-16 2.262-17 1.038-20
 C4H9,i-butyl    1.994-16 1.298-16 1.555-17 8.744-21
 C4H9,s-butyl    2.112-16 1.365-16 1.544-17 7.201-21
 C4H10,n-butane  8.529-14 6.380-14 2.520-14 4.361-16
 C4H10,isobutane 3.186-14 2.404-14 1.014-14 2.147-16
 C5H6,1,3cyclo-  1.429-12 1.010-12 1.399-13 1.952-16
 C5H8,cyclo-     1.308-14 9.244-15 1.751-15 4.600-18
 C5H10,1-pentene 9.436-16 6.342-16 1.126-16 1.733-19
 C6H2            1.104-16 5.465-17 2.851-19 3.915-26
 C6H5,phenyl     5.728-16 3.460-16 1.271-17 3.819-22
 C6H6            1.830-11 1.369-11 2.888-12 1.409-14
 C6H5OH,phenol   2.224-15 1.576-15 3.076-16 8.086-19
 C7H7,benzyl     3.601-16 2.216-16 1.280-17 1.123-21
 C7H8            3.358-14 2.336-14 3.923-15 7.064-18
 C8H8,styrene    2.623-16 1.638-16 1.231-17 2.005-21
 *H              3.1937-6 2.6697-6 5.9427-7 7.8197-9
 HCO             4.919 -8 3.964 -8 9.202 -9 8.724-11
 HCCO            1.410-11 9.837-12 7.813-13 2.979-16
 *H2             4.7378-1 4.7381-1 4.6668-1 4.4003-1
 HCHO,formaldehy 2.2167-6 1.9867-6 1.1911-6 1.6641-7
 HCOOH           3.9095-8 3.6403-8 4.0240-8 2.4873-8
 H2O             7.4434-3 7.6462-3 1.2659-2 3.7158-2
 *O              8.834-15 5.988-15 3.298-16 5.136-20
 *OH             1.800 -9 1.450 -9 3.364-10 3.250-12
 C(gr)           4.8890-2 4.9457-2 5.5708-2 1.0523-1

  * THERMODYNAMIC PROPERTIES FITTED TO 20000.K

              THEORETICAL ROCKET PERFORMANCE ASSUMING EQUILIBRIUM

            COMPOSITION DURING EXPANSION FROM FINITE AREA COMBUSTOR

 Pin =   319.1 PSIA
 Ac/At =  2.0000      Pinj/Pinf =  1.055023
 CASE = test___________

             REACTANT                       MOLES         ENERGY      TEMP
                                                         KJ/KG-MOL      K
 FUEL        RP-1                       100.0000000    -24717.700    298.150
 OXIDANT     O2(L)                      100.0000000    -12979.000     90.170

 O/F=    1.00167  %FUEL= 49.958371  R,EQ.RATIO= 3.400000  PHI,EQ.RATIO= 3.400000

                 INJECTOR  COMB END  THROAT     EXIT
 Pinj/P            1.0000   1.1197   1.8821   12.597
 P, BAR            22.000   19.648   11.689   1.7464
 T, K             1495.30  1476.25  1350.96  1074.97
 RHO, KG/CU M    2.7492e0 2.4875e0 1.6356e0 3.2556-1
 H, KJ/KG        -1086.52 -1133.78 -1523.83 -2694.41
 U, KJ/KG        -1886.74 -1923.67 -2238.51 -3230.83
 G, KJ/KG        -20088.3 -19935.7 -18730.1 -16385.5
 S, KJ/(KG)(K)    12.7076  12.7363  12.7363  12.7363

 M, (1/n)          15.537   15.539   15.717   16.662
 MW, MOL WT        14.558   14.551   14.608   14.653
 (dLV/dLP)t      -1.02490 -1.02509 -1.03479 -1.07365
 (dLV/dLT)p        1.2309   1.2373   1.3797   2.1327
 Cp, KJ/(KG)(K)    3.5575   3.6111   4.6268  11.3470
 GAMMAs            1.2547   1.2527   1.2238   1.1447
 SON VEL,M/SEC     1002.0    994.7    935.2    783.6
 MACH NUMBER        0.000    0.309    1.000    2.288

 PERFORMANCE PARAMETERS

 Ae/At                      2.0000   1.0000   2.6200
 CSTAR, M/SEC               1363.3   1363.3   1363.3
 CF                         0.2255   0.6860   1.3154
 Ivac, M/SEC                2876.6   1699.4   2092.4
 Isp, M/SEC                  307.5    935.2   1793.3

 MOLE FRACTIONS

 *CH             1.363-16 7.779-17 1.116-18 3.342-24
 CH2             6.847-12 4.599-12 2.494-13 3.562-17
 CH3             1.4208-6 1.1669-6 3.1595-7 5.0201-9
 CH2OH           4.056-11 3.129-11 7.242-12 4.847-14
 CH3O            1.788-12 1.327-12 2.331-13 7.003-16
 CH4             1.3850-2 1.3596-2 1.5628-2 1.7239-2
 CH3OH           2.3868-8 2.1207-8 1.5889-8 3.2045-9
 *CO             4.4036-1 4.3954-1 4.2927-1 3.5245-1
 *CO2            3.1547-3 3.3351-3 6.6928-3 3.3553-2
 COOH            1.252-10 1.041-10 4.184-11 1.388-12
 C2H             3.689-14 2.174-14 3.935-16 2.378-21
 C2H2,acetylene  4.0305-6 3.1987-6 5.8405-7 3.2979-9
 C2H2,vinylidene 9.564-12 6.286-12 2.903-13 2.506-17
 CH2CO,ketene    8.5499-7 7.1842-7 2.6814-7 8.9040-9
 O(CH)2O         7.817-13 6.125-13 1.859-13 2.298-15
 C2H3,vinyl      2.766-10 1.944-10 1.692-11 8.601-15
 CH3CO,acetyl    2.388-10 1.824-10 3.944-11 2.188-13
 C2H4            1.3454-5 1.1590-5 5.1360-6 3.1186-7
 C2H4O,ethylen-o 1.213-13 9.210-14 2.204-14 1.433-16
 CH3CHO,ethanal  1.653 -8 1.414 -8 8.035 -9 7.054-10
 CH3COOH         6.023-11 5.333-11 5.288-11 1.773-11
 OHCH2COOH       3.707-16 3.001-16 2.097-16 1.693-17
 C2H5            1.514 -9 1.155 -9 2.440-10 1.351-12
 C2H6            1.3492-6 1.2046-6 9.2652-7 2.2151-7
 C2H5OH          2.084-11 1.718-11 9.991-12 7.007-13
 CH3OCH3         5.926-14 4.643-14 1.865-14 4.257-16
 C2O             2.355-13 1.544-13 7.079-15 5.602-19
 C3H3,1-propynl  5.629-15 3.392-15 9.643-17 1.640-21
 C3H3,2-propynl  2.772-10 1.874-10 1.230-11 2.674-15
 C3H4,allene     2.994 -9 2.226 -9 3.382-10 8.067-13
 C3H4,propyne    8.521 -9 6.381 -9 1.020 -9 2.831-12
 C3H4,cyclo-     2.304-12 1.568-12 1.252-13 4.273-17
 C3H5,allyl      1.532-10 1.108-10 1.592-11 2.799-14
 C3H6,propylene  1.791 -8 1.434 -8 4.984 -9 1.077-10
 C3H6,cyclo-     3.116-11 2.407-11 6.455-12 6.457-14
 C3H6O,propylox  1.419-16 1.009-16 1.994-17 5.414-20
 C3H6O,acetone   1.252-11 1.016-11 5.262-12 2.580-13
 C3H6O,propanal  3.857-12 3.012-12 1.181-12 2.521-14
 C3H7,n-propyl   4.019-13 2.802-13 4.121-14 5.674-17
 C3H7,i-propyl   4.196-13 2.962-13 4.764-14 8.514-17
 C3H8            3.784-10 3.096-10 1.689-10 1.065-11
 C3H8O,1propanol 5.366-15 4.063-15 1.701-15 3.265-17
 C3H8O,2propanol 6.463-15 4.959-15 2.290-15 5.982-17
 C3O2            9.885-11 7.629-11 1.551-11 7.588-14
 C4H2,butadiyne  1.310-11 8.231-12 2.745-13 8.993-18
 C4H4,1,3-cyclo- 5.177-16 3.150-16 1.111-17 3.203-22
 C4H6,butadiene  7.299-11 5.269-11 8.647-12 1.976-14
 C4H6,1butyne    2.570-12 1.763-12 1.989-13 1.431-16
 C4H6,2butyne    3.258-12 2.291-12 3.095-13 3.809-16
 C4H6,cyclo-     7.520-14 5.215-14 6.390-15 5.981-18
 C4H8,1-butene   4.682-12 3.436-12 8.497-13 4.872-15
 C4H8,cis2-buten 2.327-12 1.727-12 4.636-13 3.376-15
 C4H8,tr2-butene 2.616-12 1.943-12 5.227-13 3.863-15
 C4H8,isobutene  3.195-12 2.386-12 6.694-13 5.611-15
 C4H8,cyclo-     1.345-15 9.593-16 1.933-16 6.064-19
 C4H9,n-butyl    3.043-16 1.969-16 2.250-17 1.077-20
 C4H9,i-butyl    1.961-16 1.280-16 1.560-17 9.115-21
 C4H9,s-butyl    2.058-16 1.333-16 1.537-17 7.474-21
 C4H10,n-butane  1.074-13 8.045-14 3.091-14 5.040-16
 C4H10,isobutane 4.056-14 3.065-14 1.255-14 2.492-16
 C5H6,1,3cyclo-  1.244-12 8.814-13 1.263-13 1.899-16
 C5H8,cyclo-     1.322-14 9.365-15 1.792-15 4.812-18
 C5H10,1-pentene 1.040-15 7.008-16 1.241-16 1.901-19
 C6H5,phenyl     3.809-16 2.310-16 9.220-18 3.320-22
 C6H6            1.709-11 1.281-11 2.758-12 1.408-14
 C6H5OH,phenol   2.201-15 1.563-15 3.073-16 8.167-19
 C7H7,benzyl     2.845-16 1.757-16 1.073-17 1.060-21
 C7H8            3.328-14 2.321-14 3.950-15 7.329-18
 C8H8,styrene    2.273-16 1.424-16 1.114-17 1.976-21
 *H              2.3586-6 1.9756-6 4.6457-7 6.8877-9
 HCO             3.932 -8 3.173 -8 7.639 -9 7.809-11
 HCCO            9.424-12 6.595-12 5.621-13 2.489-16
 *H2             4.7097-1 4.7100-1 4.6360-1 4.3746-1
 HCHO,formaldehy 2.1787-6 1.9535-6 1.1700-6 1.6257-7
 HCOOH           4.5645-8 4.2492-8 4.5359-8 2.5713-8
 H2O             8.6660-3 8.8946-3 1.4239-2 3.8755-2
 *O              5.287-15 3.597-15 2.169-16 4.089-20
 *OH             1.438 -9 1.160 -9 2.793-10 2.911-12
 C(gr)           6.2979-2 6.3615-2 7.0561-2 1.2054-1

  * THERMODYNAMIC PROPERTIES FITTED TO 20000.K

              THEORETICAL ROCKET PERFORMANCE ASSUMING EQUILIBRIUM

            COMPOSITION DURING EXPANSION FROM FINITE AREA COMBUSTOR

 Pin =   319.1 PSIA
 Ac/At =  2.0000      Pinj/Pinf =  1.054766
 CASE = test___________

             REACTANT                       MOLES         ENERGY      TEMP
                                                         KJ/KG-MOL      K
 FUEL        RP-1                       100.0000000    -24717.700    298.150
 OXIDANT     O2(L)                      100.0000000    -12979.000     90.170

 O/F=    0.97305  %FUEL= 50.683017  R,EQ.RATIO= 3.500000  PHI,EQ.RATIO= 3.500000

                 INJECTOR  COMB END  THROAT     EXIT
 Pinj/P            1.0000   1.1191   1.8769   12.521
 P, BAR            22.000   19.659   11.722   1.7570
 T, K             1473.07  1454.76  1336.43  1070.25
 RHO, KG/CU M    2.7997e0 2.5338e0 1.6644e0 3.3033-1
 H, KJ/KG        -1096.39 -1142.59 -1524.67 -2680.32
 U, KJ/KG        -1882.18 -1918.46 -2228.93 -3212.22
 G, KJ/KG        -19746.6 -19602.4 -18483.0 -16261.1
 S, KJ/(KG)(K)    12.6608  12.6893  12.6893  12.6893

 M, (1/n)          15.587   15.590   15.778   16.730
 MW, MOL WT        14.396   14.387   14.441   14.471
 (dLV/dLP)t      -1.02831 -1.02852 -1.03855 -1.07617
 (dLV/dLT)p        1.2678   1.2751   1.4263   2.1718
 Cp, KJ/(KG)(K)    3.7946   3.8571   4.9554  11.6543
 GAMMAs            1.2463   1.2442   1.2162   1.1428
 SON VEL,M/SEC      989.6    982.5    925.5    779.7
 MACH NUMBER        0.000    0.309    1.000    2.283

 PERFORMANCE PARAMETERS

 Ae/At                      2.0000   1.0000   2.6200
 CSTAR, M/SEC               1354.1   1354.1   1354.1
 CF                         0.2245   0.6835   1.3145
 Ivac, M/SEC                2856.4   1686.5   2078.7
 Isp, M/SEC                  304.0    925.5   1779.8

 MOLE FRACTIONS

 CH2             4.272-12 2.881-12 1.708-13 2.928-17
 CH3             1.2025-6 9.8926-7 2.7660-7 4.7021-9
 CH2OH           3.582-11 2.768-11 6.545-12 4.561-14
 CH3O            1.510-12 1.123-12 2.034-13 6.480-16
 CH4             1.5483-2 1.5195-2 1.7135-2 1.8214-2
 CH3OH           2.6664-8 2.3691-8 1.7366-8 3.3404-9
 *CO             4.2642-1 4.2551-1 4.1436-1 3.3735-1
 *CO2            3.6687-3 3.8728-3 7.4643-3 3.4189-2
 COOH            1.178-10 9.798-11 3.950-11 1.306-12
 C2H             1.842-14 1.092-14 2.250-16 1.774-21
 C2H2,acetylene  3.0563-6 2.4312-6 4.6732-7 2.9351-9
 C2H2,vinylidene 5.817-12 3.839-12 1.947-13 2.038-17
 CH2CO,ketene    7.7827-7 6.5462-7 2.4765-7 8.4269-9
 O(CH)2O         7.362-13 5.775-13 1.762-13 2.180-15
 C2H3,vinyl      1.951-10 1.376-10 1.281-11 7.479-15
 CH3CO,acetyl    2.085-10 1.596-10 3.534-11 2.051-13
 C2H4            1.2909-5 1.1131-5 4.9826-6 3.0949-7
 C2H4O,ethylen-o 1.128-13 8.576-14 2.081-14 1.387-16
 CH3CHO,ethanal  1.767 -8 1.512 -8 8.477 -9 7.223-10
 CH3COOH         7.525-11 6.660-11 6.315-11 1.915-11
 OHCH2COOH       4.683-16 3.791-16 2.522-16 1.815-17
 C2H5            1.351 -9 1.033 -9 2.240-10 1.311-12
 C2H6            1.5520-6 1.3858-6 1.0441-6 2.3990-7
 C2H5OH          2.452-11 2.022-11 1.144-11 7.566-13
 CH3OCH3         6.571-14 5.152-14 2.037-14 4.487-16
 C2O             1.395-13 9.181-14 4.617-15 4.393-19
 C3H3,1-propynl  3.317-15 2.009-15 6.323-17 1.325-21
 C3H3,2-propynl  1.868-10 1.268-10 8.977-12 2.284-15
 C3H4,allene     2.419 -9 1.803 -9 2.860-10 7.466-13
 C3H4,propyne    6.941 -9 5.210 -9 8.686-10 2.629-12
 C3H4,cyclo-     1.678-12 1.146-12 9.751-14 3.793-17
 C3H5,allyl      1.285-10 9.314-11 1.391-11 2.650-14
 C3H6,propylene  1.813 -8 1.453 -8 5.073 -9 1.107-10
 C3H6,cyclo-     3.025-11 2.341-11 6.357-12 6.531-14
 C3H6O,propylox  1.404-16 9.994-17 1.989-17 5.451-20
 C3H6O,acetone   1.446-11 1.174-11 5.937-12 2.764-13
 C3H6O,propanal  4.259-12 3.329-12 1.285-12 2.654-14
 C3H7,n-propyl   3.712-13 2.594-13 3.908-14 5.660-17
 C3H7,i-propyl   3.932-13 2.782-13 4.569-14 8.539-17
 C3H8            4.518-10 3.699-10 1.972-10 1.188-11
 C3H8O,1propanol 6.572-15 4.979-15 2.022-15 3.633-17
 C3H8O,2propanol 8.039-15 6.172-15 2.756-15 6.701-17
 C3O2            7.957-11 6.152-11 1.290-11 6.658-14
 C4H2,butadiyne  7.559-12 4.772-12 1.766-13 7.162-18
 C4H4,1,3-cyclo- 3.308-16 2.022-16 7.795-18 2.695-22
 C4H6,butadiene  6.548-11 4.738-11 7.997-12 1.937-14
 C4H6,1butyne    2.172-12 1.494-12 1.753-13 1.368-16
 C4H6,2butyne    2.834-12 1.998-12 2.791-13 3.682-16
 C4H6,cyclo-     6.437-14 4.476-14 5.692-15 5.750-18
 C4H8,1-butene   4.924-12 3.620-12 8.962-13 5.159-15
 C4H8,cis2-buten 2.480-12 1.844-12 4.941-13 3.593-15
 C4H8,tr2-butene 2.789-12 2.074-12 5.573-13 4.113-15
 C4H8,isobutene  3.429-12 2.565-12 7.174-13 5.990-15
 C4H8,cyclo-     1.368-15 9.779-16 1.987-16 6.339-19
 C4H9,n-butyl    2.961-16 1.921-16 2.236-17 1.113-20
 C4H9,i-butyl    1.928-16 1.262-16 1.563-17 9.459-21
 C4H9,s-butyl    2.005-16 1.303-16 1.529-17 7.724-21
 C4H10,n-butane  1.330-13 9.972-14 3.733-14 5.785-16
 C4H10,isobutane 5.073-14 3.838-14 1.529-14 2.873-16
 C5H6,1,3cyclo-  1.092-12 7.757-13 1.148-13 1.844-16
 C5H8,cyclo-     1.334-14 9.468-15 1.830-15 5.014-18
 C5H10,1-pentene 1.138-15 7.681-16 1.357-16 2.073-19
 C6H5,phenyl     2.600-16 1.584-16 6.835-18 2.890-22
 C6H6            1.602-11 1.203-11 2.640-12 1.404-14
 C6H5OH,phenol   2.176-15 1.548-15 3.063-16 8.219-19
 C7H7,benzyl     2.280-16 1.414-16 9.093-18 9.993-22
 C7H8            3.296-14 2.303-14 3.971-15 7.574-18
 C8H8,styrene    1.987-16 1.249-16 1.013-17 1.942-21
 *H              1.7767-6 1.4915-6 3.6933-7 6.0845-9
 HCO             3.184 -8 2.574 -8 6.411 -9 7.000-11
 HCCO            6.460-12 4.535-12 4.130-13 2.085-16
 *H2             4.6801-1 4.6805-1 4.6046-1 4.3489-1
 HCHO,formaldehy 2.1397-6 1.9193-6 1.1481-6 1.5867-7
 HCOOH           5.2594-8 4.8938-8 5.0518-8 2.6497-8
 H2O             9.9678-3 1.0220-2 1.5850-2 4.0334-2
 *O              3.270-15 2.233-15 1.466-16 3.269-20
 *OH             1.164 -9 9.411-10 2.345-10 2.611-12
 C(gr)           7.6422-2 7.7127-2 8.4719-2 1.3502-1

  * THERMODYNAMIC PROPERTIES FITTED TO 20000.K

              THEORETICAL ROCKET PERFORMANCE ASSUMING EQUILIBRIUM

            COMPOSITION DURING EXPANSION FROM FINITE AREA COMBUSTOR

 Pin =   319.1 PSIA
 Ac/At =  2.0000      Pinj/Pinf =  1.054530
 CASE = test___________

             REACTANT                       MOLES         ENERGY      TEMP
                                                         KJ/KG-MOL      K
 FUEL        RP-1                       100.0000000    -24717.700    298.150
 OXIDANT     O2(L)                      100.0000000    -12979.000     90.170

 O/F=    0.94602  %FUEL= 51.386975  R,EQ.RATIO= 3.600000  PHI,EQ.RATIO= 3.600000

                 INJECTOR  COMB END  THROAT     EXIT
 Pinj/P            1.0000   1.1186   1.8722   12.453
 P, BAR            22.000   19.668   11.751   1.7666
 T, K             1452.93  1435.31  1323.16  1065.68
 RHO, KG/CU M    2.8484e0 2.5783e0 1.6921e0 3.3493-1
 H, KJ/KG        -1105.99 -1151.20 -1525.95 -2667.45
 U, KJ/KG        -1878.35 -1914.03 -2220.43 -3194.91
 G, KJ/KG        -19433.9 -19297.3 -18254.3 -16140.5
 S, KJ/(KG)(K)    12.6144  12.6427  12.6427  12.6427

 M, (1/n)          15.641   15.644   15.841   16.799
 MW, MOL WT        14.245   14.236   14.285   14.300
 (dLV/dLP)t      -1.03183 -1.03206 -1.04231 -1.07857
 (dLV/dLT)p        1.3067   1.3148   1.4734   2.2089
 Cp, KJ/(KG)(K)    4.0461   4.1173   5.2882  11.9424
 GAMMAs            1.2384   1.2363   1.2094   1.1411
 SON VEL,M/SEC      978.0    971.1    916.5    775.8
 MACH NUMBER        0.000    0.310    1.000    2.278

 PERFORMANCE PARAMETERS

 Ae/At                      2.0000   1.0000   2.6200
 CSTAR, M/SEC               1345.3   1345.3   1345.3
 CF                         0.2235   0.6812   1.3136
 Ivac, M/SEC                2837.4   1674.2   2065.7
 Isp, M/SEC                  300.7    916.5   1767.2

 MOLE FRACTIONS

 CH2             2.750-12 1.863-12 1.199-13 2.416-17
 CH3             1.0284-6 8.4754-7 2.4418-7 4.4075-9
 CH2OH           3.184-11 2.464-11 5.942-12 4.291-14
 CH3O            1.287-12 9.593-13 1.788-13 5.996-16
 CH4             1.7164-2 1.6839-2 1.8658-2 1.9203-2
 CH3OH           2.9501-8 2.6208-8 1.8824-8 3.4718-9
 *CO             4.1305-1 4.1205-1 4.0010-1 3.2306-1
 *CO2            4.2101-3 4.4372-3 8.2341-3 3.4772-2
 COOH            1.110-10 9.235-11 3.731-11 1.229-12
 C2H             9.636-15 5.744-15 1.336-16 1.332-21
 C2H2,acetylene  2.3599-6 1.8817-6 3.7940-7 2.6180-9
 C2H2,vinylidene 3.657-12 2.424-12 1.341-13 1.664-17
 CH2CO,ketene    7.1157-7 5.9913-7 2.2947-7 7.9743-9
 O(CH)2O         6.941-13 5.451-13 1.670-13 2.066-15
 C2H3,vinyl      1.408-10 9.962-11 9.871-12 6.518-15
 CH3CO,acetyl    1.834-10 1.406-10 3.183-11 1.922-13
 C2H4            1.2410-5 1.0711-5 4.8403-6 3.0687-7
 C2H4O,ethylen-o 1.051-13 8.009-14 1.969-14 1.341-16
 CH3CHO,ethanal  1.875 -8 1.605 -8 8.890 -9 7.377-10
 CH3COOH         9.232-11 8.165-11 7.423-11 2.057-11
 OHCH2COOH       5.798-16 4.691-16 2.980-16 1.934-17
 C2H5            1.214 -9 9.296-10 2.066-10 1.270-12
 C2H6            1.7664-6 1.5774-6 1.1662-6 2.5890-7
 C2H5OH          2.847-11 2.348-11 1.296-11 8.132-13
 CH3OCH3         7.218-14 5.664-14 2.206-14 4.710-16
 C2O             8.546-14 5.649-14 3.095-15 3.461-19
 C3H3,1-propynl  2.025-15 1.232-15 4.263-17 1.075-21
 C3H3,2-propynl  1.292-10 8.802-11 6.691-12 1.955-15
 C3H4,allene     1.981 -9 1.480 -9 2.445-10 6.914-13
 C3H4,propyne    5.728 -9 4.311 -9 7.471-10 2.442-12
 C3H4,cyclo-     1.248-12 8.554-13 7.720-14 3.371-17
 C3H5,allyl      1.089-10 7.917-11 1.226-11 2.507-14
 C3H6,propylene  1.832 -8 1.471 -8 5.153 -9 1.136-10
 C3H6,cyclo-     2.940-11 2.279-11 6.262-12 6.593-14
 C3H6O,propylox  1.386-16 9.889-17 1.980-17 5.471-20
 C3H6O,acetone   1.650-11 1.340-11 6.629-12 2.948-13
 C3H6O,propanal  4.662-12 3.646-12 1.388-12 2.782-14
 C3H7,n-propyl   3.443-13 2.412-13 3.716-14 5.632-17
 C3H7,i-propyl   3.697-13 2.622-13 4.391-14 8.544-17
 C3H8            5.325-10 4.362-10 2.276-10 1.318-11
 C3H8O,1propanol 7.919-15 6.003-15 2.369-15 4.017-17
 C3H8O,2propanol 9.829-15 7.550-15 3.268-15 7.460-17
 C3O2            6.481-11 5.020-11 1.082-11 5.849-14
 C4H2,butadiyne  4.525-12 2.871-12 1.170-13 5.730-18
 C4H4,1,3-cyclo- 2.177-16 1.337-16 5.598-18 2.274-22
 C4H6,butadiene  5.912-11 4.288-11 7.430-12 1.895-14
 C4H6,1butyne    1.854-12 1.279-12 1.557-13 1.306-16
 C4H6,2butyne    2.486-12 1.757-12 2.533-13 3.554-16
 C4H6,cyclo-     5.564-14 3.880-14 5.106-15 5.520-18
 C4H8,1-butene   5.155-12 3.796-12 9.409-13 5.441-15
 C4H8,cis2-buten 2.628-12 1.957-12 5.237-13 3.808-15
 C4H8,tr2-butene 2.957-12 2.202-12 5.910-13 4.361-15
 C4H8,isobutene  3.658-12 2.740-12 7.647-13 6.368-15
 C4H8,cyclo-     1.389-15 9.947-16 2.036-16 6.602-19
 C4H9,n-butyl    2.883-16 1.876-16 2.221-17 1.146-20
 C4H9,i-butyl    1.895-16 1.244-16 1.565-17 9.776-21
 C4H9,s-butyl    1.956-16 1.274-16 1.520-17 7.950-21
 C4H10,n-butane  1.621-13 1.217-13 4.448-14 6.596-16
 C4H10,isobutane 6.243-14 4.726-14 1.835-14 3.289-16
 C5H6,1,3cyclo-  9.662-13 6.881-13 1.049-13 1.788-16
 C5H8,cyclo-     1.343-14 9.556-15 1.864-15 5.205-18
 C5H10,1-pentene 1.235-15 8.356-16 1.473-16 2.248-19
 C6H5,phenyl     1.820-16 1.114-16 5.168-18 2.518-22
 C6H6            1.507-11 1.134-11 2.533-12 1.397-14
 C6H5OH,phenol   2.147-15 1.530-15 3.047-16 8.245-19
 C7H7,benzyl     1.854-16 1.154-16 7.788-18 9.410-22
 C7H8            3.263-14 2.285-14 3.988-15 7.800-18
 C8H8,styrene    1.750-16 1.104-16 9.275-18 1.903-21
 *H              1.3638-6 1.1476-6 2.9810-7 5.3903-9
 HCO             2.611 -8 2.115 -8 5.434 -9 6.283-11
 HCCO            4.534-12 3.193-12 3.092-13 1.751-16
 *H2             4.6494-1 4.6500-1 4.5730-1 4.3233-1
 HCHO,formaldehy 2.0998-6 1.8841-6 1.1257-6 1.5476-7
 HCOOH           5.9843-8 5.5645-8 5.5656-8 2.7225-8
 H2O             1.1334-2 1.1608-2 1.7477-2 4.1890-2
 *O              2.086-15 1.430-15 1.016-16 2.624-20
 *OH             9.545-10 7.729-10 1.988-10 2.345-12
 C(gr)           8.9272-2 9.0045-2 9.8226-2 1.4874-1

  * THERMODYNAMIC PROPERTIES FITTED TO 20000.K

              THEORETICAL ROCKET PERFORMANCE ASSUMING EQUILIBRIUM

            COMPOSITION DURING EXPANSION FROM FINITE AREA COMBUSTOR

 Pin =   319.1 PSIA
 Ac/At =  2.0000      Pinj/Pinf =  1.054313
 CASE = test___________

             REACTANT                       MOLES         ENERGY      TEMP
                                                         KJ/KG-MOL      K
 FUEL        RP-1                       100.0000000    -24717.700    298.150
 OXIDANT     O2(L)                      100.0000000    -12979.000     90.170

 O/F=    0.92045  %FUEL= 52.071120  R,EQ.RATIO= 3.700000  PHI,EQ.RATIO= 3.700000

                 INJECTOR  COMB END  THROAT     EXIT
 Pinj/P            1.0000   1.1181   1.8680   12.392
 P, BAR            22.000   19.677   11.777   1.7753
 T, K             1434.67  1417.66  1311.00  1061.23
 RHO, KG/CU M    2.8953e0 2.6212e0 1.7187e0 3.3938-1
 H, KJ/KG        -1115.31 -1159.62 -1527.60 -2655.66
 U, KJ/KG        -1875.16 -1910.30 -2212.86 -3178.77
 G, KJ/KG        -19147.0 -19017.3 -18041.8 -16023.5
 S, KJ/(KG)(K)    12.5686  12.5966  12.5966  12.5966

 M, (1/n)          15.699   15.702   15.907   16.868
 MW, MOL WT        14.104   14.094   14.139   14.139
 (dLV/dLP)t      -1.03543 -1.03567 -1.04605 -1.08087
 (dLV/dLT)p        1.3472   1.3561   1.5206   2.2441
 Cp, KJ/(KG)(K)    4.3087   4.3884   5.6219  12.2110
 GAMMAs            1.2310   1.2288   1.2033   1.1395
 SON VEL,M/SEC      967.2    960.4    908.1    772.1
 MACH NUMBER        0.000    0.310    1.000    2.273

 PERFORMANCE PARAMETERS

 Ae/At                      2.0000   1.0000   2.6200
 CSTAR, M/SEC               1337.0   1337.0   1337.0
 CF                         0.2227   0.6792   1.3127
 Ivac, M/SEC                2819.3   1662.7   2053.2
 Isp, M/SEC                  297.7    908.1   1755.2

 MOLE FRACTIONS

 CH2             1.824-12 1.240-12 8.616-14 2.002-17
 CH3             8.8828-7 7.3333-7 2.1719-7 4.1346-9
 CH2OH           2.847-11 2.207-11 5.418-12 4.035-14
 CH3O            1.107-12 8.269-13 1.581-13 5.548-16
 CH4             1.8878-2 1.8515-2 2.0190-2 2.0205-2
 CH3OH           3.2347-8 2.8731-8 2.0253-8 3.5983-9
 *CO             4.0021-1 3.9912-1 3.8646-1 3.0954-1
 *CO2            4.7717-3 5.0207-3 8.9946-3 3.5305-2
 COOH            1.046-10 8.712-11 3.525-11 1.155-12
 C2H             5.266-15 3.157-15 8.206-17 1.006-21
 C2H2,acetylene  1.8533-6 1.4813-6 3.1208-7 2.3403-9
 C2H2,vinylidene 2.371-12 1.579-12 9.460-14 1.363-17
 CH2CO,ketene    6.5331-7 5.5059-7 2.1326-7 7.5456-9
 O(CH)2O         6.551-13 5.149-13 1.583-13 1.955-15
 C2H3,vinyl      1.038-10 7.370-11 7.735-12 5.693-15
 CH3CO,acetyl    1.624-10 1.247-10 2.882-11 1.801-13
 C2H4            1.1952-5 1.0326-5 4.7078-6 3.0403-7
 C2H4O,ethylen-o 9.829-14 7.499-14 1.866-14 1.295-16
 CH3CHO,ethanal  1.978 -8 1.693 -8 9.275 -9 7.516-10
 CH3COOH         1.113-10 9.839-11 8.603-11 2.200-11
 OHCH2COOH       7.046-16 5.697-16 3.467-16 2.051-17
 C2H5            1.098 -9 8.421-10 1.915-10 1.230-12
 C2H6            1.9908-6 1.7778-6 1.2921-6 2.7847-7
 C2H5OH          3.265-11 2.693-11 1.452-11 8.704-13
 CH3OCH3         7.862-14 6.173-14 2.372-14 4.925-16
 C2O             5.404-14 3.587-14 2.125-15 2.739-19
 C3H3,1-propynl  1.277-15 7.813-16 2.948-17 8.749-22
 C3H3,2-propynl  9.160-11 6.263-11 5.080-12 1.678-15
 C3H4,allene     1.643 -9 1.231 -9 2.110-10 6.407-13
 C3H4,propyne    4.786 -9 3.610 -9 6.485-10 2.270-12
 C3H4,cyclo-     9.464-13 6.509-13 6.202-14 3.000-17
 C3H5,allyl      9.330-11 6.800-11 1.088-11 2.372-14
 C3H6,propylene  1.849 -8 1.485 -8 5.226 -9 1.163-10
 C3H6,cyclo-     2.861-11 2.220-11 6.170-12 6.642-14
 C3H6O,propylox  1.368-16 9.772-17 1.968-17 5.475-20
 C3H6O,acetone   1.862-11 1.513-11 7.332-12 3.131-13
 C3H6O,propanal  5.060-12 3.960-12 1.489-12 2.905-14
 C3H7,n-propyl   3.207-13 2.252-13 3.543-14 5.594-17
 C3H7,i-propyl   3.487-13 2.478-13 4.228-14 8.530-17
 C3H8            6.199-10 5.080-10 2.599-10 1.455-11
 C3H8O,1propanol 9.401-15 7.129-15 2.741-15 4.417-17
 C3H8O,2propanol 1.183-14 9.088-15 3.824-15 8.257-17
 C3O2            5.338-11 4.141-11 9.155-12 5.145-14
 C4H2,butadiyne  2.804-12 1.787-12 7.963-14 4.604-18
 C4H4,1,3-cyclo- 1.473-16 9.086-17 4.105-18 1.923-22
 C4H6,butadiene  5.371-11 3.905-11 6.931-12 1.852-14
 C4H6,1butyne    1.599-12 1.106-12 1.392-13 1.246-16
 C4H6,2butyne    2.199-12 1.558-12 2.311-13 3.428-16
 C4H6,cyclo-     4.853-14 3.393-14 4.610-15 5.296-18
 C4H8,1-butene   5.374-12 3.963-12 9.839-13 5.718-15
 C4H8,cis2-buten 2.772-12 2.067-12 5.526-13 4.021-15
 C4H8,tr2-butene 3.119-12 2.326-12 6.238-13 4.607-15
 C4H8,isobutene  3.882-12 2.911-12 8.109-13 6.744-15
 C4H8,cyclo-     1.407-15 1.010-15 2.082-16 6.853-19
 C4H9,n-butyl    2.809-16 1.832-16 2.206-17 1.175-20
 C4H9,i-butyl    1.863-16 1.226-16 1.565-17 1.007-20
 C4H9,s-butyl    1.908-16 1.246-16 1.511-17 8.154-21
 C4H10,n-butane  1.947-13 1.463-13 5.234-14 7.476-16
 C4H10,isobutane 7.567-14 5.732-14 2.175-14 3.744-16
 C5H6,1,3cyclo-  8.613-13 6.150-13 9.639-14 1.733-16
 C5H8,cyclo-     1.351-14 9.631-15 1.894-15 5.386-18
 C5H10,1-pentene 1.332-15 9.027-16 1.589-16 2.426-19
 C6H5,phenyl     1.304-16 8.014-17 3.977-18 2.198-22
 C6H6            1.422-11 1.072-11 2.435-12 1.388-14
 C6H5OH,phenol   2.117-15 1.511-15 3.026-16 8.248-19
 C7H7,benzyl     1.527-16 9.540-17 6.734-18 8.853-22
 C7H8            3.229-14 2.266-14 4.000-15 8.008-18
 C8H8,styrene    1.554-16 9.832-17 8.530-18 1.861-21
 *H              1.0655-6 8.9860-7 2.4391-7 4.7886-9
 HCO             2.166 -8 1.757 -8 4.646 -9 5.648-11
 HCCO            3.255-12 2.299-12 2.355-13 1.475-16
 *H2             4.6179-1 4.6187-1 4.5411-1 4.2979-1
 HCHO,formaldehy 2.0593-6 1.8483-6 1.1029-6 1.5084-7
 HCOOH           6.7291-8 6.2520-8 6.0722-8 2.7896-8
 H2O             1.2749-2 1.3043-2 1.9108-2 4.3421-2
 *O              1.370-15 9.432-16 7.197-17 2.115-20
 *OH             7.918-10 6.422-10 1.700-10 2.109-12
 C(gr)           1.0157-1 1.0241-1 1.1112-1 1.6174-1

  * THERMODYNAMIC PROPERTIES FITTED TO 20000.K

              THEORETICAL ROCKET PERFORMANCE ASSUMING EQUILIBRIUM

            COMPOSITION DURING EXPANSION FROM FINITE AREA COMBUSTOR

 Pin =   319.1 PSIA
 Ac/At =  2.0000      Pinj/Pinf =  1.054116
 CASE = test___________

             REACTANT                       MOLES         ENERGY      TEMP
                                                         KJ/KG-MOL      K
 FUEL        RP-1                       100.0000000    -24717.700    298.150
 OXIDANT     O2(L)                      100.0000000    -12979.000     90.170

 O/F=    0.89623  %FUEL= 52.736275  R,EQ.RATIO= 3.800000  PHI,EQ.RATIO= 3.800000

                 INJECTOR  COMB END  THROAT     EXIT
 Pinj/P            1.0000   1.1176   1.8642   12.337
 P, BAR            22.000   19.685   11.801   1.7833
 T, K             1418.05  1401.61  1299.81  1056.91
 RHO, KG/CU M    2.9406e0 2.6626e0 1.7443e0 3.4370-1
 H, KJ/KG        -1124.38 -1167.85 -1529.56 -2644.79
 U, KJ/KG        -1872.54 -1907.17 -2206.11 -3163.65
 G, KJ/KG        -18883.0 -18759.5 -17843.5 -15910.1
 S, KJ/(KG)(K)    12.5233  12.5511  12.5511  12.5511

 M, (1/n)          15.759   15.763   15.974   16.937
 MW, MOL WT        13.973   13.962   14.002   13.988
 (dLV/dLP)t      -1.03907 -1.03932 -1.04973 -1.08305
 (dLV/dLT)p        1.3887   1.3983   1.5676   2.2774
 Cp, KJ/(KG)(K)    4.5795   4.6673   5.9536  12.4604
 GAMMAs            1.2242   1.2220   1.1978   1.1380
 SON VEL,M/SEC      957.0    950.5    900.2    768.4
 MACH NUMBER        0.000    0.310    1.000    2.269

 PERFORMANCE PARAMETERS

 Ae/At                      2.0000   1.0000   2.6200
 CSTAR, M/SEC               1329.1   1329.1   1329.1
 CF                         0.2219   0.6773   1.3120
 Ivac, M/SEC                2802.1   1651.8   2041.3
 Isp, M/SEC                  294.9    900.2   1743.8

 MOLE FRACTIONS

 CH2             1.242-12 8.483-13 6.315-14 1.664-17
 CH3             7.7431-7 6.4033-7 1.9450-7 3.8817-9
 CH2OH           2.560-11 1.987-11 4.959-12 3.793-14
 CH3O            9.601-13 7.186-13 1.407-13 5.134-16
 CH4             2.0616-2 2.0211-2 2.1726-2 2.1218-2
 CH3OH           3.5177-8 3.1236-8 2.1647-8 3.7199-9
 *CO             3.8787-1 3.8670-1 3.7342-1 2.9673-1
 *CO2            5.3462-3 5.6156-3 9.7398-3 3.5786-2
 COOH            9.875-11 8.225-11 3.331-11 1.085-12
 C2H             2.996-15 1.807-15 5.194-17 7.646-22
 C2H2,acetylene  1.4784-6 1.1845-6 2.5974-7 2.0965-9
 C2H2,vinylidene 1.582-12 1.058-12 6.816-14 1.122-17
 CH2CO,ketene    6.0212-7 5.0791-7 1.9873-7 7.1402-9
 O(CH)2O         6.187-13 4.867-13 1.501-13 1.848-15
 C2H3,vinyl      7.809-11 5.561-11 6.151-12 4.984-15
 CH3CO,acetyl    1.447-10 1.113-10 2.620-11 1.687-13
 C2H4            1.1531-5 9.9716-6 4.5840-6 3.0101-7
 C2H4O,ethylen-o 9.214-14 7.040-14 1.770-14 1.249-16
 CH3CHO,ethanal  2.075 -8 1.777 -8 9.632 -9 7.641-10
 CH3COOH         1.322-10 1.167-10 9.847-11 2.343-11
 OHCH2COOH       8.413-16 6.797-16 3.976-16 2.164-17
 C2H5            9.985-10 7.675-10 1.782-10 1.191-12
 C2H6            2.2238-6 1.9859-6 1.4214-6 2.9861-7
 C2H5OH          3.702-11 3.054-11 1.612-11 9.279-13
 CH3OCH3         8.496-14 6.674-14 2.534-14 5.132-16
 C2O             3.519-14 2.345-14 1.491-15 2.177-19
 C3H3,1-propynl  8.306-16 5.105-16 2.085-17 7.148-22
 C3H3,2-propynl  6.641-11 4.557-11 3.923-12 1.444-15
 C3H4,allene     1.379 -9 1.036 -9 1.837-10 5.941-13
 C3H4,propyne    4.044 -9 3.058 -9 5.675-10 2.111-12
 C3H4,cyclo-     7.307-13 5.042-13 5.048-14 2.675-17
 C3H5,allyl      8.071-11 5.897-11 9.730-12 2.244-14
 C3H6,propylene  1.863 -8 1.498 -8 5.290 -9 1.187-10
 C3H6,cyclo-     2.786-11 2.166-11 6.080-12 6.680-14
 C3H6O,propylox  1.348-16 9.645-17 1.952-17 5.465-20
 C3H6O,acetone   2.080-11 1.690-11 8.041-12 3.314-13
 C3H6O,propanal  5.451-12 4.268-12 1.586-12 3.024-14
 C3H7,n-propyl   2.999-13 2.111-13 3.385-14 5.545-17
 C3H7,i-propyl   3.299-13 2.350-13 4.077-14 8.499-17
 C3H8            7.137-10 5.850-10 2.942-10 1.600-11
 C3H8O,1propanol 1.101-14 8.350-15 3.135-15 4.831-17
 C3H8O,2propanol 1.403-14 1.078-14 4.420-15 9.090-17
 C3O2            4.440-11 3.450-11 7.801-12 4.531-14
 C4H2,butadiyne  1.793-12 1.148-12 5.547-14 3.716-18
 C4H4,1,3-cyclo- 1.023-16 6.337-17 3.068-18 1.630-22
 C4H6,butadiene  4.908-11 3.576-11 6.490-12 1.808-14
 C4H6,1butyne    1.392-12 9.652-13 1.253-13 1.188-16
 C4H6,2butyne    1.959-12 1.391-12 2.119-13 3.303-16
 C4H6,cyclo-     4.269-14 2.993-14 4.186-15 5.076-18
 C4H8,1-butene   5.582-12 4.122-12 1.025-12 5.989-15
 C4H8,cis2-buten 2.910-12 2.172-12 5.807-13 4.231-15
 C4H8,tr2-butene 3.276-12 2.446-12 6.557-13 4.850-15
 C4H8,isobutene  4.098-12 3.078-12 8.561-13 7.118-15
 C4H8,cyclo-     1.423-15 1.023-15 2.124-16 7.092-19
 C4H9,n-butyl    2.740-16 1.791-16 2.189-17 1.201-20
 C4H9,i-butyl    1.833-16 1.208-16 1.564-17 1.033-20
 C4H9,s-butyl    1.863-16 1.219-16 1.501-17 8.337-21
 C4H10,n-butane  2.308-13 1.735-13 6.092-14 8.427-16
 C4H10,isobutane 9.044-14 6.855-14 2.549-14 4.237-16
 C5H6,1,3cyclo-  7.733-13 5.534-13 8.897-14 1.677-16
 C5H8,cyclo-     1.357-14 9.693-15 1.922-15 5.556-18
 C5H10,1-pentene 1.428-15 9.692-16 1.705-16 2.606-19
 C6H6            1.346-11 1.016-11 2.345-12 1.376-14
 C6H5OH,phenol   2.085-15 1.490-15 2.999-16 8.231-19
 C7H7,benzyl     1.274-16 7.985-17 5.872-18 8.323-22
 C7H8            3.195-14 2.246-14 4.008-15 8.198-18
 C8H8,styrene    1.390-16 8.819-17 7.880-18 1.817-21
 *H              8.4602-7 7.1512-7 2.0202-7 4.2653-9
 HCO             1.817 -8 1.476 -8 4.004 -9 5.084-11
 HCCO            2.385-12 1.690-12 1.821-13 1.246-16
 *H2             4.5858-1 4.5868-1 4.5093-1 4.2726-1
 HCHO,formaldehy 2.0183-6 1.8119-6 1.0799-6 1.4693-7
 HCOOH           7.4841-8 6.9474-8 6.5674-8 2.8511-8
 H2O             1.4200-2 1.4510-2 2.0736-2 4.4926-2
 *O              9.245-16 6.387-16 5.202-17 1.712-20
 *OH             6.640-10 5.395-10 1.466-10 1.900-12
 C(gr)           1.1336-1 1.1426-1 1.2344-1 1.7408-1

  * THERMODYNAMIC PROPERTIES FITTED TO 20000.K

              THEORETICAL ROCKET PERFORMANCE ASSUMING EQUILIBRIUM

            COMPOSITION DURING EXPANSION FROM FINITE AREA COMBUSTOR

 Pin =   319.1 PSIA
 Ac/At =  2.0000      Pinj/Pinf =  1.053936
 CASE = test___________

             REACTANT                       MOLES         ENERGY      TEMP
                                                         KJ/KG-MOL      K
 FUEL        RP-1                       100.0000000    -24717.700    298.150
 OXIDANT     O2(L)                      100.0000000    -12979.000     90.170

 O/F=    0.87325  %FUEL= 53.383221  R,EQ.RATIO= 3.900000  PHI,EQ.RATIO= 3.900000

                 INJECTOR  COMB END  THROAT     EXIT
 Pinj/P            1.0000   1.1172   1.8608   12.287
 P, BAR            22.000   19.692   11.823   1.7906
 T, K             1402.88  1386.95  1289.46  1052.71
 RHO, KG/CU M    2.9843e0 2.7025e0 1.7691e0 3.4789-1
 H, KJ/KG        -1133.20 -1175.90 -1531.77 -2634.76
 U, KJ/KG        -1870.39 -1904.55 -2200.07 -3149.45
 G, KJ/KG        -18639.1 -18521.2 -17657.9 -15800.1
 S, KJ/(KG)(K)    12.4785  12.5061  12.5061  12.5061

 M, (1/n)          15.822   15.826   16.042   17.006
 MW, MOL WT        13.850   13.838   13.873   13.846
 (dLV/dLP)t      -1.04272 -1.04297 -1.05333 -1.08512
 (dLV/dLT)p        1.4309   1.4411   1.6140   2.3088
 Cp, KJ/(KG)(K)    4.8556   4.9509   6.2808  12.6909
 GAMMAs            1.2178   1.2157   1.1928   1.1367
 SON VEL,M/SEC      947.5    941.2    892.8    764.9
 MACH NUMBER        0.000    0.310    1.000    2.266

 PERFORMANCE PARAMETERS

 Ae/At                      2.0000   1.0000   2.6200
 CSTAR, M/SEC               1321.5   1321.5   1321.5
 CF                         0.2211   0.6756   1.3113
 Ivac, M/SEC                2785.6   1641.4   2030.0
 Isp, M/SEC                  292.2    892.8   1733.0

 MOLE FRACTIONS

 CH2             8.676-13 5.947-13 4.714-14 1.389-17
 CH3             6.8068-7 5.6381-7 1.7524-7 3.6472-9
 CH2OH           2.314-11 1.798-11 4.555-12 3.565-14
 CH3O            8.391-13 6.292-13 1.259-13 4.752-16
 CH4             2.2367-2 2.1921-2 2.3264-2 2.2244-2
 CH3OH           3.7968-8 3.3704-8 2.3000-8 3.8365-9
 *CO             3.7601-1 3.7476-1 3.6094-1 2.8458-1
 *CO2            5.9271-3 6.2154-3 1.0465-2 3.6218-2
 COOH            9.327-11 7.772-11 3.149-11 1.020-12
 C2H             1.769-15 1.072-15 3.378-17 5.843-22
 C2H2,acetylene  1.1965-6 9.6076-7 2.1847-7 1.8821-9
 C2H2,vinylidene 1.084-12 7.274-13 5.007-14 9.266-18
 CH2CO,ketene    5.5692-7 4.7017-7 1.8563-7 6.7571-9
 O(CH)2O         5.849-13 4.604-13 1.423-13 1.746-15
 C2H3,vinyl      5.981-11 4.273-11 4.956-12 4.373-15
 CH3CO,acetyl    1.297-10 9.994-11 2.391-11 1.580-13
 C2H4            1.1144-5 9.6450-6 4.4679-6 2.9785-7
 C2H4O,ethylen-o 8.658-14 6.624-14 1.682-14 1.204-16
 CH3CHO,ethanal  2.166 -8 1.855 -8 9.960 -9 7.752-10
 CH3COOH         1.547-10 1.364-10 1.114-10 2.487-11
 OHCH2COOH       9.887-16 7.981-16 4.502-16 2.272-17
 C2H5            9.132-10 7.032-10 1.664-10 1.152-12
 C2H6            2.4640-6 2.2003-6 1.5537-6 3.1930-7
 C2H5OH          4.155-11 3.427-11 1.775-11 9.856-13
 CH3OCH3         9.116-14 7.164-14 2.690-14 5.331-16
 C2O             2.353-14 1.574-14 1.067-15 1.738-19
 C3H3,1-propynl  5.554-16 3.429-16 1.504-17 5.861-22
 C3H3,2-propynl  4.916-11 3.385-11 3.074-12 1.246-15
 C3H4,allene     1.170 -9 8.810-10 1.612-10 5.513-13
 C3H4,propyne    3.453 -9 2.617 -9 5.004-10 1.964-12
 C3H4,cyclo-     5.735-13 3.970-13 4.158-14 2.388-17
 C3H5,allyl      7.045-11 5.159-11 8.752-12 2.123-14
 C3H6,propylene  1.874 -8 1.509 -8 5.348 -9 1.210-10
 C3H6,cyclo-     2.717-11 2.115-11 5.994-12 6.708-14
 C3H6O,propylox  1.327-16 9.510-17 1.933-17 5.443-20
 C3H6O,acetone   2.302-11 1.870-11 8.752-12 3.494-13
 C3H6O,propanal  5.831-12 4.568-12 1.680-12 3.137-14
 C3H7,n-propyl   2.815-13 1.985-13 3.241-14 5.489-17
 C3H7,i-propyl   3.131-13 2.234-13 3.937-14 8.455-17
 C3H8            8.133-10 6.669-10 3.303-10 1.752-11
 C3H8O,1propanol 1.273-14 9.658-15 3.550-15 5.259-17
 C3H8O,2propanol 1.642-14 1.261-14 5.054-15 9.958-17
 C3O2            3.728-11 2.901-11 6.692-12 3.996-14
 C4H2,butadiyne  1.181-12 7.595-13 3.947-14 3.011-18
 C4H6,butadiene  4.508-11 3.292-11 6.096-12 1.764-14
 C4H6,1butyne    1.221-12 8.493-13 1.134-13 1.132-16
 C4H6,2butyne    1.758-12 1.251-12 1.952-13 3.181-16
 C4H6,cyclo-     3.784-14 2.660-14 3.820-15 4.863-18
 C4H8,1-butene   5.778-12 4.273-12 1.065-12 6.254-15
 C4H8,cis2-buten 3.042-12 2.274-12 6.078-13 4.439-15
 C4H8,tr2-butene 3.426-12 2.562-12 6.867-13 5.090-15
 C4H8,isobutene  4.308-12 3.239-12 9.001-13 7.489-15
 C4H8,cyclo-     1.437-15 1.035-15 2.162-16 7.318-19
 C4H9,n-butyl    2.674-16 1.753-16 2.172-17 1.224-20
 C4H9,i-butyl    1.803-16 1.191-16 1.562-17 1.058-20
 C4H9,s-butyl    1.820-16 1.194-16 1.490-17 8.499-21
 C4H10,n-butane  2.703-13 2.033-13 7.019-14 9.449-16
 C4H10,isobutane 1.067-13 8.094-14 2.955-14 4.769-16
 C5H6,1,3cyclo-  6.987-13 5.012-13 8.246-14 1.622-16
 C5H8,cyclo-     1.362-14 9.744-15 1.947-15 5.716-18
 C5H10,1-pentene 1.522-15 1.035-15 1.820-16 2.787-19
 C6H6            1.278-11 9.666-12 2.262-12 1.364-14
 C6H5OH,phenol   2.051-15 1.468-15 2.969-16 8.194-19
 C7H7,benzyl     1.075-16 6.759-17 5.158-18 7.821-22
 C7H8            3.161-14 2.227-14 4.013-15 8.371-18
 C8H8,styrene    1.251-16 7.962-17 7.309-18 1.771-21
 *H              6.8181-7 5.7756-7 1.6918-7 3.8089-9
 HCO             1.539 -8 1.252 -8 3.476 -9 4.584-11
 HCCO            1.780-12 1.265-12 1.427-13 1.056-16
 *H2             4.5534-1 4.5547-1 4.4776-1 4.2474-1
 HCHO,formaldehy 1.9771-6 1.7753-6 1.0567-6 1.4305-7
 HCOOH           8.2408-8 7.6429-8 7.0479-8 2.9071-8
 H2O             1.5673-2 1.5997-2 2.2350-2 4.6403-2
 *O              6.391-16 4.432-16 3.827-17 1.391-20
 *OH             5.623-10 4.576-10 1.273-10 1.714-12
 C(gr)           1.2467-1 1.2563-1 1.3522-1 1.8581-1

  * THERMODYNAMIC PROPERTIES FITTED TO 20000.K

              THEORETICAL ROCKET PERFORMANCE ASSUMING EQUILIBRIUM

            COMPOSITION DURING EXPANSION FROM FINITE AREA COMBUSTOR

 Pin =   319.1 PSIA
 Ac/At =  2.0000      Pinj/Pinf =  1.053772
 CASE = test___________

             REACTANT                       MOLES         ENERGY      TEMP
                                                         KJ/KG-MOL      K
 FUEL        RP-1                       100.0000000    -24717.700    298.150
 OXIDANT     O2(L)                      100.0000000    -12979.000     90.170

 O/F=    0.85142  %FUEL= 54.012696  R,EQ.RATIO= 4.000000  PHI,EQ.RATIO= 4.000000

                 INJECTOR  COMB END  THROAT     EXIT
 Pinj/P            1.0000   1.1168   1.8577   12.241
 P, BAR            22.000   19.699   11.843   1.7972
 T, K             1388.98  1373.51  1279.85  1048.63
 RHO, KG/CU M    3.0266e0 2.7411e0 1.7931e0 3.5197-1
 H, KJ/KG        -1141.77 -1183.75 -1534.18 -2625.44
 U, KJ/KG        -1868.67 -1902.40 -2194.65 -3136.07
 G, KJ/KG        -18412.9 -18300.2 -17483.5 -15693.2
 S, KJ/(KG)(K)    12.4344  12.4618  12.4618  12.4618

 M, (1/n)          15.888   15.891   16.112   17.075
 MW, MOL WT        13.734   13.722   13.752   13.712
 (dLV/dLP)t      -1.04635 -1.04660 -1.05686 -1.08708
 (dLV/dLT)p        1.4734   1.4842   1.6596   2.3382
 Cp, KJ/(KG)(K)    5.1343   5.2367   6.6017  12.9027
 GAMMAs            1.2120   1.2099   1.1883   1.1354
 SON VEL,M/SEC      938.6    932.5    885.9    761.4
 MACH NUMBER        0.000    0.311    1.000    2.262

 PERFORMANCE PARAMETERS

 Ae/At                      2.0000   1.0000   2.6200
 CSTAR, M/SEC               1314.3   1314.3   1314.3
 CF                         0.2205   0.6741   1.3107
 Ivac, M/SEC                2769.9   1631.4   2019.0
 Isp, M/SEC                  289.8    885.9   1722.6

 MOLE FRACTIONS

 CH2             6.198-13 4.264-13 3.576-14 1.163-17
 CH3             6.0298-7 5.0022-7 1.5876-7 3.4296-9
 CH2OH           2.101-11 1.635-11 4.196-12 3.351-14
 CH3O            7.385-13 5.547-13 1.131-13 4.400-16
 CH4             2.4124-2 2.3636-2 2.4799-2 2.3280-2
 CH3OH           4.0703-8 3.6122-8 2.4308-8 3.9482-9
 *CO             3.6459-1 3.6328-1 3.4899-1 2.7306-1
 *CO2            6.5084-3 6.8140-3 1.1165-2 3.6602-2
 COOH            8.816-11 7.348-11 2.978-11 9.575-13
 C2H             1.080-15 6.579-16 2.250-17 4.490-22
 C2H2,acetylene  9.8101-7 7.8945-7 1.8551-7 1.6930-9
 C2H2,vinylidene 7.601-13 5.122-13 3.741-14 7.681-18
 CH2CO,ketene    5.1678-7 4.3662-7 1.7378-7 6.3953-9
 O(CH)2O         5.532-13 4.358-13 1.349-13 1.649-15
 C2H3,vinyl      4.657-11 3.337-11 4.041-12 3.845-15
 CH3CO,acetyl    1.169-10 9.018-11 2.190-11 1.480-13
 C2H4            1.0786-5 9.3432-6 4.3588-6 2.9456-7
 C2H4O,ethylen-o 8.154-14 6.245-14 1.600-14 1.159-16
 CH3CHO,ethanal  2.250 -8 1.927 -8 1.026 -8 7.850-10
 CH3COOH         1.787-10 1.574-10 1.248-10 2.629-11
 OHCH2COOH       1.145-15 9.235-16 5.041-16 2.377-17
 C2H5            8.395-10 6.475-10 1.559-10 1.114-12
 C2H6            2.7101-6 2.4201-6 1.6885-6 3.4051-7
 C2H5OH          4.620-11 3.810-11 1.939-11 1.043-12
 CH3OCH3         9.719-14 7.640-14 2.840-14 5.521-16
 C2O             1.612-14 1.082-14 7.773-16 1.393-19
 C3H3,1-propynl  3.809-16 2.362-16 1.106-17 4.823-22
 C3H3,2-propynl  3.707-11 2.561-11 2.442-12 1.078-15
 C3H4,allene     1.003 -9 7.568-10 1.424-10 5.119-13
 C3H4,propyne    2.977 -9 2.261 -9 4.442-10 1.829-12
 C3H4,cyclo-     4.569-13 3.173-13 3.461-14 2.135-17
 C3H5,allyl      6.199-11 4.550-11 7.916-12 2.009-14
 C3H6,propylene  1.883 -8 1.518 -8 5.399 -9 1.232-10
 C3H6,cyclo-     2.651-11 2.067-11 5.909-12 6.726-14
 C3H6O,propylox  1.306-16 9.367-17 1.912-17 5.410-20
 C3H6O,acetone   2.526-11 2.052-11 9.462-12 3.673-13
 C3H6O,propanal  6.200-12 4.859-12 1.771-12 3.246-14
 C3H7,n-propyl   2.651-13 1.874-13 3.109-14 5.425-17
 C3H7,i-propyl   2.978-13 2.129-13 3.807-14 8.397-17
 C3H8            9.184-10 7.532-10 3.681-10 1.912-11
 C3H8O,1propanol 1.456-14 1.104-14 3.984-15 5.700-17
 C3H8O,2propanol 1.898-14 1.459-14 5.724-15 1.086-16
 C3O2            3.156-11 2.459-11 5.774-12 3.529-14
 C4H2,butadiyne  7.980-13 5.156-13 2.863-14 2.450-18
 C4H6,butadiene  4.161-11 3.044-11 5.744-12 1.719-14
 C4H6,1butyne    1.080-12 7.531-13 1.032-13 1.078-16
 C4H6,2butyne    1.587-12 1.132-12 1.805-13 3.061-16
 C4H6,cyclo-     3.379-14 2.381-14 3.503-15 4.657-18
 C4H8,1-butene   5.964-12 4.416-12 1.102-12 6.512-15
 C4H8,cis2-buten 3.169-12 2.372-12 6.341-13 4.643-15
 C4H8,tr2-butene 3.570-12 2.672-12 7.166-13 5.326-15
 C4H8,isobutene  4.511-12 3.395-12 9.430-13 7.856-15
 C4H8,cyclo-     1.449-15 1.045-15 2.198-16 7.532-19
 C4H9,n-butyl    2.613-16 1.716-16 2.154-17 1.245-20
 C4H9,i-butyl    1.774-16 1.175-16 1.559-17 1.080-20
 C4H9,s-butyl    1.780-16 1.170-16 1.479-17 8.642-21
 C4H10,n-butane  3.130-13 2.356-13 8.015-14 1.054-15
 C4H10,isobutane 1.245-13 9.449-14 3.395-14 5.343-16
 C5H6,1,3cyclo-  6.350-13 4.565-13 7.671-14 1.567-16
 C5H8,cyclo-     1.366-14 9.785-15 1.970-15 5.865-18
 C5H10,1-pentene 1.614-15 1.099-15 1.933-16 2.969-19
 C6H6            1.216-11 9.215-12 2.185-12 1.349-14
 C6H5OH,phenol   2.016-15 1.445-15 2.934-16 8.140-19
 C7H8            3.127-14 2.206-14 4.014-15 8.527-18
 C8H8,styrene    1.133-16 7.230-17 6.804-18 1.724-21
 *H              5.5694-7 4.7275-7 1.4307-7 3.4096-9
 HCO             1.315 -8 1.071 -8 3.037 -9 4.138-11
 HCCO            1.352-12 9.636-13 1.133-13 8.965-17
 *H2             4.5207-1 4.5223-1 4.4461-1 4.2224-1
 HCHO,formaldehy 1.9358-6 1.7385-6 1.0336-6 1.3921-7
 HCOOH           8.9917-8 8.3318-8 7.5113-8 2.9577-8
 H2O             1.7158-2 1.7495-2 2.3947-2 4.7852-2
 *O              4.518-16 3.143-16 2.861-17 1.135-20
 *OH             4.805-10 3.916-10 1.113-10 1.548-12
 C(gr)           1.3553-1 1.3653-1 1.4649-1 1.9696-1

  * THERMODYNAMIC PROPERTIES FITTED TO 20000.K