
 *******************************************************************************

         NASA-GLENN CHEMICAL EQUILIBRIUM PROGRAM CEA2, MAY 21, 2004
                   BY  BONNIE MCBRIDE AND SANFORD GORDON
      REFS: NASA RP-1311, PART I, 1994 AND NASA RP-1311, PART II, 1996

 *******************************************************************************



 problem    phi,eq.ratio=0.50,0.6,0.7,0.8,0.9,1,1.1,1.2,1.3,1.4,1.5,1.6,1.7,1.8,1
 .9,2,
       det   t,k=300,  p,bar=1,
 react
   fuel=CH4 moles=1 t,k=300
   oxid=O2 moles=2 t,k=300
 output
      trace=1e-16 siunits short
 end


                     DETONATION PROPERTIES OF AN IDEAL REACTING GAS
 CASE =                

             REACTANT                       MOLES         ENERGY      TEMP
                                                         KJ/KG-MOL      K
 FUEL        CH4                          1.0000000    -74533.907    300.000
 OXIDANT     O2                           2.0000000        54.358    300.000

 O/F=    7.97853  %FUEL= 11.137684  R,EQ.RATIO= 0.500000  PHI,EQ.RATIO= 0.500000

 UNBURNED GAS

 P1, BAR           1.0000
 T1, K             300.00
 H1, KJ/KG        -515.95
 M1, (1/n)         28.808
 GAMMA1            1.3721
 SON VEL1,M/SEC     344.7

 BURNED GAS

 P, BAR            23.439
 T, K             3431.15
 RHO, KG/CU M    2.1332 0
 H, KJ/KG          981.49
 U, KJ/KG         -117.30
 G, KJ/KG        -35345.7
 S, KJ/(KG)(K)    10.5875

 M, (1/n)          25.963
 (dLV/dLP)t      -1.03989
 (dLV/dLT)p        1.7417
 Cp, KJ/(KG)(K)    6.2641
 GAMMAs            1.1302
 SON VEL,M/SEC     1114.4

 DETONATION PARAMETERS

 P/P1              23.439
 T/T1              11.437
 M/M1              0.9013
 RHO/RHO1          1.8471
 DET MACH NUMBER   5.9717
 DET VEL,M/SEC     2058.3

 MOLE FRACTIONS

 *C              2.730-11
 *CH             4.007-12
 CH2             2.430-12
 CH3             1.287-12
 CH2OH           1.763-12
 CH3O            5.375-13
 CH4             1.159-13
 CH3OH           3.977-14
 *CO             5.6515-2
 *CO2            1.2374-1
 COOH            2.9017-6
 C2H2,acetylene  3.623-16
 CH2CO,ketene    1.979-14
 O(CH)2O         1.381-15
 HO(CO)2OH       9.338-15
 C2O             1.063-12
 C3O2            4.068-16
 *H              1.3085-2
 HCO             8.9575-7
 HCCO            3.812-14
 HO2             4.6352-4
 *H2             1.5774-2
 HCHO,formaldehy 8.7736-9
 HCOOH           1.4374-7
 H2O             2.8232-1
 H2O2            2.4844-5
 *O              5.0192-2
 *OH             1.1122-1
 *O2             3.4666-1
 O3              3.2415-6

  * THERMODYNAMIC PROPERTIES FITTED TO 20000.K


                     DETONATION PROPERTIES OF AN IDEAL REACTING GAS
 CASE =                

             REACTANT                       MOLES         ENERGY      TEMP
                                                         KJ/KG-MOL      K
 FUEL        CH4                          1.0000000    -74533.907    300.000
 OXIDANT     O2                           2.0000000        54.358    300.000

 O/F=    6.64877  %FUEL= 13.073993  R,EQ.RATIO= 0.600000  PHI,EQ.RATIO= 0.600000

 UNBURNED GAS

 P1, BAR           1.0000
 T1, K             300.00
 H1, KJ/KG        -605.95
 M1, (1/n)         28.317
 GAMMA1            1.3688
 SON VEL1,M/SEC     347.2

 BURNED GAS

 P, BAR            24.873
 T, K             3528.17
 RHO, KG/CU M    2.1002 0
 H, KJ/KG         1013.90
 U, KJ/KG         -170.41
 G, KJ/KG        -38017.8
 S, KJ/(KG)(K)    11.0629

 M, (1/n)          24.770
 (dLV/dLP)t      -1.04973
 (dLV/dLT)p        1.8929
 Cp, KJ/(KG)(K)    7.3314
 GAMMAs            1.1291
 SON VEL,M/SEC     1156.4

 DETONATION PARAMETERS

 P/P1              24.873
 T/T1              11.761
 M/M1              0.8747
 RHO/RHO1          1.8500
 DET MACH NUMBER   6.1608
 DET VEL,M/SEC     2139.3

 MOLE FRACTIONS

 *C              9.608-11
 *CH             1.598-11
 CH2             1.005-11
 CH3             5.372-12
 CH2OH           5.657-12
 CH3O            1.815-12
 CH4             5.101-13
 CH3OH           1.371-13
 *CO             7.9923-2
 *CO2            1.2193-1
 COOH            4.3304-6
 C2H             6.513-16
 C2H2,acetylene  2.428-15
 CH2CO,ketene    9.131-14
 O(CH)2O         4.975-15
 HO(CO)2OH       1.696-14
 C2O             4.199-12
 C3O2            1.892-15
 *H              1.9647-2
 HCO             1.8733-6
 HCCO            1.713-13
 HO2             4.6015-4
 *H2             2.4188-2
 HCHO,formaldehy 2.0293-8
 HCOOH           2.3621-7
 H2O             3.0705-1
 H2O2            2.7261-5
 *O              5.4800-2
 *OH             1.2480-1
 *O2             2.6716-1
 O3              2.7040-6

  * THERMODYNAMIC PROPERTIES FITTED TO 20000.K


                     DETONATION PROPERTIES OF AN IDEAL REACTING GAS
 CASE =                

             REACTANT                       MOLES         ENERGY      TEMP
                                                         KJ/KG-MOL      K
 FUEL        CH4                          1.0000000    -74533.907    300.000
 OXIDANT     O2                           2.0000000        54.358    300.000

 O/F=    5.69895  %FUEL= 14.927717  R,EQ.RATIO= 0.700000  PHI,EQ.RATIO= 0.700000

 UNBURNED GAS

 P1, BAR           1.0000
 T1, K             300.00
 H1, KJ/KG        -692.10
 M1, (1/n)         27.862
 GAMMA1            1.3659
 SON VEL1,M/SEC     349.7

 BURNED GAS

 P, BAR            26.129
 T, K             3600.07
 RHO, KG/CU M    2.0685 0
 H, KJ/KG         1040.17
 U, KJ/KG         -223.01
 G, KJ/KG        -40379.0
 S, KJ/(KG)(K)    11.5051

 M, (1/n)          23.696
 (dLV/dLP)t      -1.05781
 (dLV/dLT)p        2.0113
 Cp, KJ/(KG)(K)    8.2498
 GAMMAs            1.1290
 SON VEL,M/SEC     1194.2

 DETONATION PARAMETERS

 P/P1              26.129
 T/T1              12.000
 M/M1              0.8505
 RHO/RHO1          1.8519
 DET MACH NUMBER   6.3242
 DET VEL,M/SEC     2211.5

 MOLE FRACTIONS

 *C              2.464-10
 *CH             4.598-11
 CH2             3.041-11
 CH3             1.680-11
 CH2OH           1.411-11
 CH3O            4.693-12
 CH4             1.702-12
 CH3OH           3.693-13
 CH3OOH          1.159-16
 *CO             1.0328-1
 *CO2            1.1720-1
 COOH            5.7277-6
 *C2             3.239-16
 C2H             3.038-15
 C2H2,acetylene  1.099-14
 C2H2,vinylidene 1.083-16
 CH2CO,ketene    3.046-13
 O(CH)2O         1.337-14
 HO(CO)2OH       2.589-14
 CH3CO,acetyl    1.697-16
 C2O             1.191-11
 C3O2            6.144-15
 *H              2.6679-2
 HCO             3.2761-6
 HCCO            5.464-13
 HO2             4.2965-4
 *H2             3.4214-2
 HCHO,formaldehy 3.9119-8
 HCOOH           3.4333-7
 H2O             3.2701-1
 H2O2            2.8040-5
 *O              5.5552-2
 *OH             1.3237-1
 *O2             2.0321-1
 O3              2.0918-6

  * THERMODYNAMIC PROPERTIES FITTED TO 20000.K


                     DETONATION PROPERTIES OF AN IDEAL REACTING GAS
 CASE =                

             REACTANT                       MOLES         ENERGY      TEMP
                                                         KJ/KG-MOL      K
 FUEL        CH4                          1.0000000    -74533.907    300.000
 OXIDANT     O2                           2.0000000        54.358    300.000

 O/F=    4.98658  %FUEL= 16.704030  R,EQ.RATIO= 0.800000  PHI,EQ.RATIO= 0.800000

 UNBURNED GAS

 P1, BAR           1.0000
 T1, K             300.00
 H1, KJ/KG        -774.66
 M1, (1/n)         27.440
 GAMMA1            1.3632
 SON VEL1,M/SEC     352.0

 BURNED GAS

 P, BAR            27.245
 T, K             3653.66
 RHO, KG/CU M    2.0384 0
 H, KJ/KG         1061.94
 U, KJ/KG         -274.62
 G, KJ/KG        -42483.2
 S, KJ/(KG)(K)    11.9182

 M, (1/n)          22.729
 (dLV/dLP)t      -1.06411
 (dLV/dLT)p        2.0990
 Cp, KJ/(KG)(K)    9.0229
 GAMMAs            1.1293
 SON VEL,M/SEC     1228.6

 DETONATION PARAMETERS

 P/P1              27.245
 T/T1              12.179
 M/M1              0.8283
 RHO/RHO1          1.8530
 DET MACH NUMBER   6.4671
 DET VEL,M/SEC     2276.5

 MOLE FRACTIONS

 *C              5.142-10
 *CH             1.069-10
 CH2             7.527-11
 CH3             4.369-11
 CH2OH           2.983-11
 CH3O            1.019-11
 CH4             4.761-12
 CH3OH           8.472-13
 CH3OOH          2.437-16
 *CO             1.2599-1
 *CO2            1.1066-1
 COOH            6.9816-6
 *C2             1.089-15
 C2H             1.066-14
 C2H2,acetylene  3.874-14
 C2H2,vinylidene 4.145-16
 CH2CO,ketene    8.254-13
 O(CH)2O         2.971-14
 HO(CO)2OH       3.511-14
 CH3CO,acetyl    5.573-16
 C2O             2.729-11
 C3O2            1.583-14
 *H              3.3904-2
 HCO             5.0981-6
 HCCO            1.397-12
 HO2             3.8238-4
 *H2             4.5941-2
 HCHO,formaldehy 6.7006-8
 HCOOH           4.5961-7
 H2O             3.4279-1
 H2O2            2.7453-5
 *O              5.3384-2
 *OH             1.3483-1
 *O2             1.5208-1
 O3              1.5191-6

  * THERMODYNAMIC PROPERTIES FITTED TO 20000.K


                     DETONATION PROPERTIES OF AN IDEAL REACTING GAS
 CASE =                

             REACTANT                       MOLES         ENERGY      TEMP
                                                         KJ/KG-MOL      K
 FUEL        CH4                          1.0000000    -74533.907    300.000
 OXIDANT     O2                           2.0000000        54.358    300.000

 O/F=    4.43251  %FUEL= 18.407680  R,EQ.RATIO= 0.900000  PHI,EQ.RATIO= 0.900000

 UNBURNED GAS

 P1, BAR           1.0000
 T1, K             300.00
 H1, KJ/KG        -853.84
 M1, (1/n)         27.047
 GAMMA1            1.3607
 SON VEL1,M/SEC     354.2

 BURNED GAS

 P, BAR            28.239
 T, K             3692.52
 RHO, KG/CU M    2.0099 0
 H, KJ/KG         1079.82
 U, KJ/KG         -325.16
 G, KJ/KG        -44357.1
 S, KJ/(KG)(K)    12.3051

 M, (1/n)          21.852
 (dLV/dLP)t      -1.06850
 (dLV/dLT)p        2.1566
 Cp, KJ/(KG)(K)    9.6427
 GAMMAs            1.1300
 SON VEL,M/SEC     1260.0

 DETONATION PARAMETERS

 P/P1              28.239
 T/T1              12.308
 M/M1              0.8079
 RHO/RHO1          1.8536
 DET MACH NUMBER   6.5931
 DET VEL,M/SEC     2335.6

 MOLE FRACTIONS

 *C              9.256-10
 *CH             2.137-10
 CH2             1.618-10
 CH3             1.000-10
 CH2OH           5.618-11
 CH3O            1.956-11
 CH4             1.181-11
 CH3OH           1.739-12
 CH3OOH          4.477-16
 *CO             1.4769-1
 *CO2            1.0303-1
 COOH            8.0105-6
 *C2             2.959-15
 C2H             3.072-14
 C2H2,acetylene  1.151-13
 C2H2,vinylidene 1.306-15
 CH2CO,ketene    1.939-12
 O(CH)2O         5.774-14
 HO(CO)2OH       4.362-14
 CH3CO,acetyl    1.543-15
 C2O             5.378-11
 C3O2            3.477-14
 *H              4.1059-2
 HCO             7.3028-6
 HCCO            3.062-12
 HO2             3.2617-4
 *H2             5.9506-2
 HCHO,formaldehy 1.0568-7
 HCOOH           5.7969-7
 H2O             3.5478-1
 H2O2            2.5771-5
 *O              4.9094-2
 *OH             1.3292-1
 *O2             1.1155-1
 O3              1.0390-6

  * THERMODYNAMIC PROPERTIES FITTED TO 20000.K


                     DETONATION PROPERTIES OF AN IDEAL REACTING GAS
 CASE =                

             REACTANT                       MOLES         ENERGY      TEMP
                                                         KJ/KG-MOL      K
 FUEL        CH4                          1.0000000    -74533.907    300.000
 OXIDANT     O2                           2.0000000        54.358    300.000

 O/F=    3.98926  %FUEL= 20.043038  R,EQ.RATIO= 1.000000  PHI,EQ.RATIO= 1.000000

 UNBURNED GAS

 P1, BAR           1.0000
 T1, K             300.00
 H1, KJ/KG        -929.85
 M1, (1/n)         26.680
 GAMMA1            1.3584
 SON VEL1,M/SEC     356.4

 BURNED GAS

 P, BAR            29.123
 T, K             3718.48
 RHO, KG/CU M    1.9830 0
 H, KJ/KG         1093.87
 U, KJ/KG         -374.75
 G, KJ/KG        -46012.5
 S, KJ/(KG)(K)    12.6682

 M, (1/n)          21.052
 (dLV/dLP)t      -1.07079
 (dLV/dLT)p        2.1824
 Cp, KJ/(KG)(K)   10.0867
 GAMMAs            1.1308
 SON VEL,M/SEC     1288.7

 DETONATION PARAMETERS

 P/P1              29.123
 T/T1              12.395
 M/M1              0.7890
 RHO/RHO1          1.8539
 DET MACH NUMBER   6.7042
 DET VEL,M/SEC     2389.2

 MOLE FRACTIONS

 *C              1.4856-9
 *CH             3.805-10
 CH2             3.128-10
 CH3             2.088-10
 CH2OH           9.698-11
 CH3O            3.418-11
 CH4             2.692-11
 CH3OH           3.289-12
 CH3OOH          7.403-16
 *CO             1.6817-1
 *CO2            9.4825-2
 COOH            8.7570-6
 *C2             6.839-15
 C2H             7.641-14
 C2H2,acetylene  3.027-13
 C2H2,vinylidene 3.566-15
 CH2CO,ketene    4.108-12
 O(CH)2O         1.015-13
 HO(CO)2OH       5.055-14
 C2H3,vinyl      1.787-16
 CH3CO,acetyl    3.770-15
 C2O             9.467-11
 C3O2            6.792-14
 *H              4.7865-2
 HCO             9.8225-6
 HCCO            5.984-12
 HO2             2.6705-4
 *H2             7.5077-2
 HCHO,formaldehy 1.5680-7
 HCOOH           6.9831-7
 H2O             3.6322-1
 H2O2            2.3268-5
 *O              4.3373-2
 *OH             1.2728-1
 *O2             7.9882-2
 O3              6.6828-7

  * THERMODYNAMIC PROPERTIES FITTED TO 20000.K


                     DETONATION PROPERTIES OF AN IDEAL REACTING GAS
 CASE =                

             REACTANT                       MOLES         ENERGY      TEMP
                                                         KJ/KG-MOL      K
 FUEL        CH4                          1.0000000    -74533.907    300.000
 OXIDANT     O2                           2.0000000        54.358    300.000

 O/F=    3.62660  %FUEL= 21.614129  R,EQ.RATIO= 1.100000  PHI,EQ.RATIO= 1.100000

 UNBURNED GAS

 P1, BAR           1.0000
 T1, K             300.00
 H1, KJ/KG       -1002.87
 M1, (1/n)         26.337
 GAMMA1            1.3563
 SON VEL1,M/SEC     358.4

 BURNED GAS

 P, BAR            29.899
 T, K             3732.37
 RHO, KG/CU M    1.9575 0
 H, KJ/KG         1103.77
 U, KJ/KG         -423.63
 G, KJ/KG        -47451.2
 S, KJ/(KG)(K)    13.0092

 M, (1/n)          20.317
 (dLV/dLP)t      -1.07072
 (dLV/dLT)p        2.1730
 Cp, KJ/(KG)(K)   10.3201
 GAMMAs            1.1319
 SON VEL,M/SEC     1314.9

 DETONATION PARAMETERS

 P/P1              29.899
 T/T1              12.441
 M/M1              0.7714
 RHO/RHO1          1.8539
 DET MACH NUMBER   6.8013
 DET VEL,M/SEC     2437.7

 MOLE FRACTIONS

 *C              2.1665-9
 *CH             6.161-10
 CH2             5.558-10
 CH3             4.061-10
 CH2OH           1.562-10
 CH3O            5.541-11
 CH4             5.763-11
 CH3OH           5.843-12
 CH3OOH          1.122-15
 *CO             1.8730-1
 *CO2            8.6418-2
 COOH            9.1861-6
 *C2             1.387-14
 C2H             1.693-13
 C2H2,acetylene  7.260-13
 C2H2,vinylidene 8.725-15
 CH2CO,ketene    8.046-12
 O(CH)2O         1.651-13
 HO(CO)2OH       5.528-14
 C2H3,vinyl      4.863-16
 CH3CO,acetyl    8.368-15
 CH3CHO,ethanal  1.129-16
 C2O             1.523-10
 C3O2            1.212-13
 *H              5.4011-2
 HCO             1.2555-5
 HCCO            1.069-11
 HO2             2.0965-4
 *H2             9.2827-2
 HCHO,formaldehy 2.2184-7
 HCOOH           8.1036-7
 H2O             3.6824-1
 H2O2            2.0215-5
 *O              3.6833-2
 *OH             1.1853-1
 *O2             5.5591-2
 O3              4.0245-7

  * THERMODYNAMIC PROPERTIES FITTED TO 20000.K


                     DETONATION PROPERTIES OF AN IDEAL REACTING GAS
 CASE =                

             REACTANT                       MOLES         ENERGY      TEMP
                                                         KJ/KG-MOL      K
 FUEL        CH4                          1.0000000    -74533.907    300.000
 OXIDANT     O2                           2.0000000        54.358    300.000

 O/F=    3.32439  %FUEL= 23.124669  R,EQ.RATIO= 1.200000  PHI,EQ.RATIO= 1.200000

 UNBURNED GAS

 P1, BAR           1.0000
 T1, K             300.00
 H1, KJ/KG       -1073.08
 M1, (1/n)         26.015
 GAMMA1            1.3544
 SON VEL1,M/SEC     360.4

 BURNED GAS

 P, BAR            30.564
 T, K             3734.39
 RHO, KG/CU M    1.9332 0
 H, KJ/KG         1108.90
 U, KJ/KG         -472.13
 G, KJ/KG        -48668.9
 S, KJ/(KG)(K)    13.3296

 M, (1/n)          19.639
 (dLV/dLP)t      -1.06810
 (dLV/dLT)p        2.1260
 Cp, KJ/(KG)(K)   10.3063
 GAMMAs            1.1332
 SON VEL,M/SEC     1338.5

 DETONATION PARAMETERS

 P/P1              30.564
 T/T1              12.448
 M/M1              0.7549
 RHO/RHO1          1.8536
 DET MACH NUMBER   6.8850
 DET VEL,M/SEC     2481.1

 MOLE FRACTIONS

 *C              2.9006-9
 *CH             9.178-10
 CH2             9.199-10
 CH3             7.462-10
 CH2OH           2.374-10
 CH3O            8.430-11
 CH4             1.177-10
 CH3OH           9.873-12
 CH3OOH          1.574-15
 *CO             2.0498-1
 *CO2            7.8085-2
 COOH            9.2843-6
 *C2             2.515-14
 C2H             3.408-13
 C2H2,acetylene  1.620-12
 C2H2,vinylidene 1.952-14
 CH2CO,ketene    1.482-11
 O(CH)2O         2.515-13
 HO(CO)2OH       5.746-14
 C2H3,vinyl      1.211-15
 CH3CO,acetyl    1.720-14
 C2H4            2.261-16
 CH3CHO,ethanal  2.581-16
 CH3COOH         1.535-16
 C2O             2.269-10
 C3O2            2.012-13
 *H              5.9153-2
 HCO             1.5363-5
 HCCO            1.772-11
 HO2             1.5739-4
 *H2             1.1291-1
 HCHO,formaldehy 3.0192-7
 HCOOH           9.1088-7
 H2O             3.6992-1
 H2O2            1.6879-5
 *O              3.0022-2
 *OH             1.0731-1
 *O2             3.7419-2
 O3              2.2548-7

  * THERMODYNAMIC PROPERTIES FITTED TO 20000.K


                     DETONATION PROPERTIES OF AN IDEAL REACTING GAS
 CASE =                

             REACTANT                       MOLES         ENERGY      TEMP
                                                         KJ/KG-MOL      K
 FUEL        CH4                          1.0000000    -74533.907    300.000
 OXIDANT     O2                           2.0000000        54.358    300.000

 O/F=    3.06866  %FUEL= 24.578091  R,EQ.RATIO= 1.300000  PHI,EQ.RATIO= 1.300000

 UNBURNED GAS

 P1, BAR           1.0000
 T1, K             300.00
 H1, KJ/KG       -1140.63
 M1, (1/n)         25.713
 GAMMA1            1.3526
 SON VEL1,M/SEC     362.2

 BURNED GAS

 P, BAR            31.114
 T, K             3724.39
 RHO, KG/CU M    1.9099 0
 H, KJ/KG         1108.41
 U, KJ/KG         -520.70
 G, KJ/KG        -49657.3
 S, KJ/(KG)(K)    13.6306

 M, (1/n)          19.008
 (dLV/dLP)t      -1.06300
 (dLV/dLT)p        2.0422
 Cp, KJ/(KG)(K)   10.0271
 GAMMAs            1.1350
 SON VEL,M/SEC     1359.8

 DETONATION PARAMETERS

 P/P1              31.114
 T/T1              12.415
 M/M1              0.7392
 RHO/RHO1          1.8527
 DET MACH NUMBER   6.9552
 DET VEL,M/SEC     2519.3

 MOLE FRACTIONS

 *C              3.5824-9
 *CH             1.2659-9
 CH2             1.4284-9
 CH3             1.3075-9
 CH2OH           3.428-10
 CH3O            1.212-10
 CH4             2.317-10
 CH3OH           1.599-11
 CH3OOH          2.058-15
 *CO             2.2115-1
 *CO2            7.0035-2
 COOH            9.0609-6
 *C2             4.117-14
 C2H             6.303-13
 C2H2,acetylene  3.408-12
 C2H2,vinylidene 4.049-14
 CH2CO,ketene    2.595-11
 O(CH)2O         3.624-13
 HO(CO)2OH       5.703-14
 C2H3,vinyl      2.801-15
 CH3CO,acetyl    3.314-14
 C2H4            5.899-16
 CH3CHO,ethanal  5.574-16
 CH3COOH         2.751-16
 C2O             3.158-10
 C3O2            3.143-13
 *H              6.2937-2
 HCO             1.8074-5
 HCCO            2.754-11
 HO2             1.1258-4
 *H2             1.3543-1
 HCHO,formaldehy 3.9751-7
 HCOOH           9.9527-7
 H2O             3.6829-1
 H2O2            1.3514-5
 *O              2.3425-2
 *OH             9.4333-2
 *O2             2.4245-2
 O3              1.1667-7

  * THERMODYNAMIC PROPERTIES FITTED TO 20000.K


                     DETONATION PROPERTIES OF AN IDEAL REACTING GAS
 CASE =                

             REACTANT                       MOLES         ENERGY      TEMP
                                                         KJ/KG-MOL      K
 FUEL        CH4                          1.0000000    -74533.907    300.000
 OXIDANT     O2                           2.0000000        54.358    300.000

 O/F=    2.84947  %FUEL= 25.977576  R,EQ.RATIO= 1.400000  PHI,EQ.RATIO= 1.400000

 UNBURNED GAS

 P1, BAR           1.0000
 T1, K             300.00
 H1, KJ/KG       -1205.67
 M1, (1/n)         25.429
 GAMMA1            1.3509
 SON VEL1,M/SEC     364.0

 BURNED GAS

 P, BAR            31.539
 T, K             3702.14
 RHO, KG/CU M    1.8872 0
 H, KJ/KG         1101.92
 U, KJ/KG         -569.28
 G, KJ/KG        -50408.0
 S, KJ/(KG)(K)    13.9135

 M, (1/n)          18.419
 (dLV/dLP)t      -1.05594
 (dLV/dLT)p        1.9287
 Cp, KJ/(KG)(K)    9.5040
 GAMMAs            1.1373
 SON VEL,M/SEC     1378.7

 DETONATION PARAMETERS

 P/P1              31.539
 T/T1              12.340
 M/M1              0.7243
 RHO/RHO1          1.8512
 DET MACH NUMBER   7.0112
 DET VEL,M/SEC     2552.2

 MOLE FRACTIONS

 *C              4.0881-9
 *CH             1.6208-9
 CH2             2.0896-9
 CH3             2.1965-9
 CH2OH           4.721-10
 CH3O            1.651-10
 CH4             4.427-10
 CH3OH           2.498-11
 CH3OOH          2.513-15
 *CO             2.3580-1
 *CO2            6.2422-2
 COOH            8.5480-6
 *C2             6.121-14
 C2H             1.079-12
 C2H2,acetylene  6.819-12
 C2H2,vinylidene 7.843-14
 CH2CO,ketene    4.353-11
 O(CH)2O         4.967-13
 HO(CO)2OH       5.422-14
 C2H3,vinyl      6.073-15
 CH3CO,acetyl    6.033-14
 C2H4            1.468-15
 CH3CHO,ethanal  1.147-15
 CH3COOH         4.713-16
 C2O             4.129-10
 C3O2            4.661-13
 *H              6.5042-2
 HCO             2.0494-5
 HCCO            4.038-11
 HO2             7.6437-5
 *H2             1.6037-1
 HCHO,formaldehy 5.0814-7
 HCOOH           1.0595-6
 H2O             3.6336-1
 H2O2            1.0347-5
 *O              1.7441-2
 *OH             8.0383-2
 *O2             1.5055-2
 O3              5.5341-8

  * THERMODYNAMIC PROPERTIES FITTED TO 20000.K


                     DETONATION PROPERTIES OF AN IDEAL REACTING GAS
 CASE =                

             REACTANT                       MOLES         ENERGY      TEMP
                                                         KJ/KG-MOL      K
 FUEL        CH4                          1.0000000    -74533.907    300.000
 OXIDANT     O2                           2.0000000        54.358    300.000

 O/F=    2.65951  %FUEL= 27.326070  R,EQ.RATIO= 1.500000  PHI,EQ.RATIO= 1.500000

 UNBURNED GAS

 P1, BAR           1.0000
 T1, K             300.00
 H1, KJ/KG       -1268.35
 M1, (1/n)         25.160
 GAMMA1            1.3493
 SON VEL1,M/SEC     365.7

 BURNED GAS

 P, BAR            31.836
 T, K             3667.39
 RHO, KG/CU M    1.8653 0
 H, KJ/KG         1087.27
 U, KJ/KG         -619.41
 G, KJ/KG        -50912.0
 S, KJ/(KG)(K)    14.1788

 M, (1/n)          17.866
 (dLV/dLP)t      -1.04775
 (dLV/dLT)p        1.7978
 Cp, KJ/(KG)(K)    8.8022
 GAMMAs            1.1404
 SON VEL,M/SEC     1395.1

 DETONATION PARAMETERS

 P/P1              31.836
 T/T1              12.225
 M/M1              0.7101
 RHO/RHO1          1.8493
 DET MACH NUMBER   7.0540
 DET VEL,M/SEC     2579.9

 MOLE FRACTIONS

 *C              4.3048-9
 *CH             1.9258-9
 CH2             2.8838-9
 CH3             3.5491-9
 CH2OH           6.214-10
 CH3O            2.137-10
 CH4             8.248-10
 CH3OH           3.772-11
 CH3OOH          2.867-15
 *CO             2.4893-1
 *CO2            5.5372-2
 COOH            7.8003-6
 *C2             8.272-14
 C2H             1.714-12
 C2H2,acetylene  1.305-11
 C2H2,vinylidene 1.426-13
 CH2CO,ketene    7.032-11
 O(CH)2O         6.504-13
 HO(CO)2OH       4.954-14
 C2H3,vinyl      1.240-14
 CH3CO,acetyl    1.043-13
 C2H4            3.508-15
 CH3CHO,ethanal  2.266-15
 CH3COOH         7.769-16
 OHCH2COOH       1.273-16
 C2O             5.082-10
 C3O2            6.602-13
 *H              6.5210-2
 HCO             2.2422-5
 HCCO            5.601-11
 HO2             4.9061-5
 *H2             1.8760-1
 HCHO,formaldehy 6.3218-7
 HCOOH           1.1009-6
 H2O             3.5528-1
 H2O2            7.5546-6
 *O              1.2346-2
 *OH             6.6257-2
 *O2             8.9212-3
 O3              2.3892-8

  * THERMODYNAMIC PROPERTIES FITTED TO 20000.K


                     DETONATION PROPERTIES OF AN IDEAL REACTING GAS
 CASE =                

             REACTANT                       MOLES         ENERGY      TEMP
                                                         KJ/KG-MOL      K
 FUEL        CH4                          1.0000000    -74533.907    300.000
 OXIDANT     O2                           2.0000000        54.358    300.000

 O/F=    2.49329  %FUEL= 28.626312  R,EQ.RATIO= 1.600000  PHI,EQ.RATIO= 1.600000

 UNBURNED GAS

 P1, BAR           1.0000
 T1, K             300.00
 H1, KJ/KG       -1328.78
 M1, (1/n)         24.907
 GAMMA1            1.3478
 SON VEL1,M/SEC     367.4

 BURNED GAS

 P, BAR            31.994
 T, K             3620.25
 RHO, KG/CU M    1.8438 0
 H, KJ/KG         1064.03
 U, KJ/KG         -671.16
 G, KJ/KG        -51166.9
 S, KJ/(KG)(K)    14.4275

 M, (1/n)          17.347
 (dLV/dLP)t      -1.03942
 (dLV/dLT)p        1.6643
 Cp, KJ/(KG)(K)    8.0158
 GAMMAs            1.1444
 SON VEL,M/SEC     1409.2

 DETONATION PARAMETERS

 P/P1              31.994
 T/T1              12.067
 M/M1              0.6965
 RHO/RHO1          1.8465
 DET MACH NUMBER   7.0825
 DET VEL,M/SEC     2602.1

 MOLE FRACTIONS

 *C              4.1773-9
 *CH             2.1220-9
 CH2             3.7555-9
 CH3             5.5246-9
 CH2OH           7.825-10
 CH3O            2.630-10
 CH4             1.5033-9
 CH3OH           5.521-11
 CH3OOH          3.059-15
 *CO             2.6056-1
 *CO2            4.8952-2
 COOH            6.8880-6
 *C2             1.017-13
 C2H             2.533-12
 C2H2,acetylene  2.398-11
 C2H2,vinylidene 2.438-13
 CH2CO,ketene    1.098-10
 O(CH)2O         8.155-13
 HO(CO)2OH       4.359-14
 C2H3,vinyl      2.395-14
 CH3CO,acetyl    1.719-13
 C2H4            8.087-15
 CH3CHO,ethanal  4.312-15
 CH3COOH         1.237-15
 OHCH2COOH       1.610-16
 C2O             5.898-10
 C3O2            8.968-13
 *H              6.3360-2
 HCO             2.3688-5
 HCCO            7.370-11
 HO2             2.9679-5
 *H2             2.1680-1
 HCHO,formaldehy 7.6654-7
 HCOOH           1.1180-6
 H2O             3.4420-1
 H2O2            5.2480-6
 *O              8.2857-3
 *OH             5.2744-2
 *O2             5.0299-3
 O3              9.3405-9

  * THERMODYNAMIC PROPERTIES FITTED TO 20000.K


                     DETONATION PROPERTIES OF AN IDEAL REACTING GAS
 CASE =                

             REACTANT                       MOLES         ENERGY      TEMP
                                                         KJ/KG-MOL      K
 FUEL        CH4                          1.0000000    -74533.907    300.000
 OXIDANT     O2                           2.0000000        54.358    300.000

 O/F=    2.34663  %FUEL= 29.880845  R,EQ.RATIO= 1.700000  PHI,EQ.RATIO= 1.700000

 UNBURNED GAS

 P1, BAR           1.0000
 T1, K             300.00
 H1, KJ/KG       -1387.08
 M1, (1/n)         24.668
 GAMMA1            1.3464
 SON VEL1,M/SEC     369.0

 BURNED GAS

 P, BAR            32.009
 T, K             3561.20
 RHO, KG/CU M    1.8224 0
 H, KJ/KG         1031.46
 U, KJ/KG         -724.94
 G, KJ/KG        -51176.1
 S, KJ/(KG)(K)    14.6601

 M, (1/n)          16.858
 (dLV/dLP)t      -1.03171
 (dLV/dLT)p        1.5401
 Cp, KJ/(KG)(K)    7.2328
 GAMMAs            1.1495
 SON VEL,M/SEC     1420.9

 DETONATION PARAMETERS

 P/P1              32.009
 T/T1              11.871
 M/M1              0.6834
 RHO/RHO1          1.8428
 DET MACH NUMBER   7.0962
 DET VEL,M/SEC     2618.4

 MOLE FRACTIONS

 *C              3.7294-9
 *CH             2.1659-9
 CH2             4.6139-9
 CH3             8.2912-9
 CH2OH           9.430-10
 CH3O            3.077-10
 CH4             2.6849-9
 CH3OH           7.840-11
 CH3OOH          3.050-15
 *CO             2.7077-1
 *CO2            4.3200-2
 COOH            5.8896-6
 *C2             1.136-13
 C2H             3.482-12
 C2H2,acetylene  4.237-11
 C2H2,vinylidene 3.927-13
 CH2CO,ketene    1.659-10
 O(CH)2O         9.814-13
 HO(CO)2OH       3.704-14
 C2H3,vinyl      4.380-14
 CH3CO,acetyl    2.704-13
 C2H4            1.804-14
 CH3CHO,ethanal  7.930-15
 CH3COOH         1.908-15
 OHCH2COOH       1.949-16
 C2O             6.461-10
 C3O2            1.173-12
 *H              5.9596-2
 HCO             2.4175-5
 HCCO            9.213-11
 HO2             1.6887-5
 *H2             2.4750-1
 HCHO,formaldehy 9.0687-7
 HCOOH           1.1109-6
 H2O             3.3043-1
 H2O2            3.4636-6
 *O              5.2609-3
 *OH             4.0500-2
 *O2             2.6932-3
 O3              3.2957-9

  * THERMODYNAMIC PROPERTIES FITTED TO 20000.K


                     DETONATION PROPERTIES OF AN IDEAL REACTING GAS
 CASE =                

             REACTANT                       MOLES         ENERGY      TEMP
                                                         KJ/KG-MOL      K
 FUEL        CH4                          1.0000000    -74533.907    300.000
 OXIDANT     O2                           2.0000000        54.358    300.000

 O/F=    2.21626  %FUEL= 31.092038  R,EQ.RATIO= 1.800000  PHI,EQ.RATIO= 1.800000

 UNBURNED GAS

 P1, BAR           1.0000
 T1, K             300.00
 H1, KJ/KG       -1443.38
 M1, (1/n)         24.441
 GAMMA1            1.3451
 SON VEL1,M/SEC     370.5

 BURNED GAS

 P, BAR            31.888
 T, K             3491.27
 RHO, KG/CU M    1.8013 0
 H, KJ/KG          990.23
 U, KJ/KG         -780.11
 G, KJ/KG        -50951.6
 S, KJ/(KG)(K)    14.8776

 M, (1/n)          16.397
 (dLV/dLP)t      -1.02504
 (dLV/dLT)p        1.4317
 Cp, KJ/(KG)(K)    6.5132
 GAMMAs            1.1555
 SON VEL,M/SEC     1430.2

 DETONATION PARAMETERS

 P/P1              31.888
 T/T1              11.638
 M/M1              0.6709
 RHO/RHO1          1.8383
 DET MACH NUMBER   7.0961
 DET VEL,M/SEC     2629.2

 MOLE FRACTIONS

 *C              3.0629-9
 *CH             2.0482-9
 CH2             5.3505-9
 CH3             1.2010-8
 CH2OH           1.0891-9
 CH3O            3.428-10
 CH4             4.7084-9
 CH3OH           1.082-10
 CH3OOH          2.847-15
 *CO             2.7965-1
 *CO2            3.8113-2
 COOH            4.8824-6
 *C2             1.155-13
 C2H             4.462-12
 C2H2,acetylene  7.220-11
 C2H2,vinylidene 5.970-13
 CH2CO,ketene    2.437-10
 O(CH)2O         1.137-12
 HO(CO)2OH       3.049-14
 C2H3,vinyl      7.600-14
 CH3CO,acetyl    4.074-13
 C2H4            3.904-14
 CH3CHO,ethanal  1.413-14
 CH3COOH         2.860-15
 OHCH2COOH       2.266-16
 C2O             6.694-10
 C3O2            1.481-12
 *H              5.4236-2
 HCO             2.3853-5
 HCCO            1.096-10
 HO2             9.0334-6
 *H2             2.7906-1
 HCHO,formaldehy 1.0482-6
 HCOOH           1.0821-6
 H2O             3.1439-1
 H2O2            2.1715-6
 *O              3.1578-3
 *OH             2.9985-2
 *O2             1.3687-3
 O3              1.0494-9

  * THERMODYNAMIC PROPERTIES FITTED TO 20000.K


                     DETONATION PROPERTIES OF AN IDEAL REACTING GAS
 CASE =                

             REACTANT                       MOLES         ENERGY      TEMP
                                                         KJ/KG-MOL      K
 FUEL        CH4                          1.0000000    -74533.907    300.000
 OXIDANT     O2                           2.0000000        54.358    300.000

 O/F=    2.09961  %FUEL= 32.262099  R,EQ.RATIO= 1.900000  PHI,EQ.RATIO= 1.900000

 UNBURNED GAS

 P1, BAR           1.0000
 T1, K             300.00
 H1, KJ/KG       -1497.76
 M1, (1/n)         24.225
 GAMMA1            1.3439
 SON VEL1,M/SEC     372.0

 BURNED GAS

 P, BAR            31.639
 T, K             3411.58
 RHO, KG/CU M    1.7804 0
 H, KJ/KG          940.07
 U, KJ/KG         -837.02
 G, KJ/KG        -50508.4
 S, KJ/(KG)(K)    15.0805

 M, (1/n)          15.962
 (dLV/dLP)t      -1.01950
 (dLV/dLT)p        1.3408
 Cp, KJ/(KG)(K)    5.8825
 GAMMAs            1.1624
 SON VEL,M/SEC     1437.2

 DETONATION PARAMETERS

 P/P1              31.639
 T/T1              11.372
 M/M1              0.6589
 RHO/RHO1          1.8332
 DET MACH NUMBER   7.0827
 DET VEL,M/SEC     2634.7

 MOLE FRACTIONS

 *C              2.3118-9
 *CH             1.7937-9
 CH2             5.8578-9
 CH3             1.6809-8
 CH2OH           1.2066-9
 CH3O            3.641-10
 CH4             8.1258-9
 CH3OH           1.455-10
 CH3OOH          2.492-15
 *CO             2.8731-1
 *CO2            3.3664-2
 COOH            3.9283-6
 *C2             1.068-13
 C2H             5.333-12
 C2H2,acetylene  1.188-10
 C2H2,vinylidene 8.577-13
 CH2CO,ketene    3.483-10
 O(CH)2O         1.270-12
 HO(CO)2OH       2.441-14
 C2H3,vinyl      1.254-13
 CH3CO,acetyl    5.892-13
 C2H4            8.219-14
 CH3CHO,ethanal  2.448-14
 CH3COOH         4.183-15
 OHCH2COOH       2.540-16
 C2H5            1.562-16
 C2O             6.567-10
 C3O2            1.813-12
 *H              4.7728-2
 HCO             2.2772-5
 HCCO            1.243-10
 HO2             4.5399-6
 *H2             3.1082-1
 HCHO,formaldehy 1.1851-6
 HCOOH           1.0348-6
 H2O             2.9661-1
 H2O2            1.2930-6
 *O              1.7896-3
 *OH             2.1395-2
 *O2             6.5969-4
 O3              3.013-10

  * THERMODYNAMIC PROPERTIES FITTED TO 20000.K


                     DETONATION PROPERTIES OF AN IDEAL REACTING GAS
 CASE =                

             REACTANT                       MOLES         ENERGY      TEMP
                                                         KJ/KG-MOL      K
 FUEL        CH4                          1.0000000    -74533.907    300.000
 OXIDANT     O2                           2.0000000        54.358    300.000

 O/F=    1.99463  %FUEL= 33.393088  R,EQ.RATIO= 2.000000  PHI,EQ.RATIO= 2.000000

 UNBURNED GAS

 P1, BAR           1.0000
 T1, K             300.00
 H1, KJ/KG       -1550.32
 M1, (1/n)         24.021
 GAMMA1            1.3427
 SON VEL1,M/SEC     373.4

 BURNED GAS

 P, BAR            31.266
 T, K             3323.29
 RHO, KG/CU M    1.7596 0
 H, KJ/KG          881.09
 U, KJ/KG         -895.73
 G, KJ/KG        -49863.7
 S, KJ/(KG)(K)    15.2694

 M, (1/n)          15.551
 (dLV/dLP)t      -1.01497
 (dLV/dLT)p        1.2661
 Cp, KJ/(KG)(K)    5.3423
 GAMMAs            1.1702
 SON VEL,M/SEC     1442.0

 DETONATION PARAMETERS

 P/P1              31.266
 T/T1              11.078
 M/M1              0.6474
 RHO/RHO1          1.8272
 DET MACH NUMBER   7.0561
 DET VEL,M/SEC     2634.8

 MOLE FRACTIONS

 *C              1.6016-9
 *CH             1.4539-9
 CH2             6.0566-9
 CH3             2.2766-8
 CH2OH           1.2841-9
 CH3O            3.691-10
 CH4             1.3843-8
 CH3OH           1.910-10
 CH3OOH          2.047-15
 *CO             2.9387-1
 *CO2            2.9805-2
 COOH            3.0701-6
 *C2             8.984-14
 C2H             5.950-12
 C2H2,acetylene  1.895-10
 C2H2,vinylidene 1.166-12
 CH2CO,ketene    4.859-10
 O(CH)2O         1.373-12
 HO(CO)2OH       1.906-14
 C2H3,vinyl      1.972-13
 CH3CO,acetyl    8.201-13
 C2H4            1.690-13
 CH3CHO,ethanal  4.138-14
 CH3COOH         5.990-15
 OHCH2COOH       2.755-16
 C2H5            3.151-16
 C2O             6.104-10
 C3O2            2.157-12
 *H              4.0589-2
 HCO             2.1045-5
 HCCO            1.347-10
 HO2             2.1409-6
 *H2             3.4212-1
 HCHO,formaldehy 1.3127-6
 HCOOH           9.7337-7
 H2O             2.7763-1
 H2O2            7.3095-7
 *O              9.5605-4
 *OH             1.4701-2
 *O2             3.0108-4
 O3              7.783-11

  * THERMODYNAMIC PROPERTIES FITTED TO 20000.K



