
 *******************************************************************************

         NASA-GLENN CHEMICAL EQUILIBRIUM PROGRAM CEA2, MAY 21, 2004
                   BY  BONNIE MCBRIDE AND SANFORD GORDON
      REFS: NASA RP-1311, PART I, 1994 AND NASA RP-1311, PART II, 1996

 *******************************************************************************



 problem    phi,eq.ratio=0.50,0.6,0.7,0.8,0.9,1,1.1,1.2,1.3,1.4,1.5,1.6,1.7,1.8,1
 .9,2,
       tv   t,k=2500,  rho,kg/m**3=1.223,
 react
   fuel=C6H6 moles=1 t,k=300
   oxid=O2 moles=7.5 t,k=300
   oxid=N2 moles=28.2143 t,k=300
 output
      trace=1e-16 siunits short
 end




               THERMODYNAMIC EQUILIBRIUM PROPERTIES AT ASSIGNED

                            TEMPERATURE AND VOLUME

 CASE =                

             REACTANT                       MOLES         ENERGY      TEMP
                                                         KJ/KG-MOL      K
 FUEL        C6H6                         1.0000000     80537.766    300.000
 OXIDANT     O2                           7.5000000     -2439.995    300.000
 OXIDANT     N2                          28.2143000     -2440.472    300.000

 O/F=   26.38190  %FUEL=  3.652047  R,EQ.RATIO= 0.500000  PHI,EQ.RATIO= 0.500000

 THERMODYNAMIC PROPERTIES

 P, BAR            8.7006
 T, K             2500.00
 RHO, KG/CU M    1.2230 0
 H, KJ/KG         1394.28
 U, KJ/KG          682.87
 G, KJ/KG        -20582.9
 S, KJ/(KG)(K)     8.7909

 M, (1/n)          29.218
 (dLV/dLP)t      -1.00157
 (dLV/dLT)p        1.0416
 Cp, KJ/(KG)(K)    1.7482
 GAMMAs            1.2122
 SON VEL,M/SEC      928.6

 MOLE FRACTIONS

 *CN             1.462-13
 *CO             3.1931-3
 *CO2            7.8771-2
 COOH            1.3856-8
 *H              1.3518-4
 HCN             4.770-12
 HCO             5.300-10
 HNC             5.074-13
 HNCO            2.073-10
 HNO             2.8571-7
 HNO2            5.2521-7
 HNO3            1.661-10
 HO2             8.6158-6
 *H2             2.5065-4
 HCHO,formaldehy 2.835-12
 HCOOH           3.972-10
 H2O             3.8302-2
 H2O2            2.4699-7
 *N              8.6475-8
 NCO             7.168-11
 *NH             5.3292-9
 NH2             6.925-10
 NH3             3.160-10
 NH2OH           4.722-13
 *NO             1.5194-2
 NO2             2.6984-5
 NO3             1.337-10
 *N2             7.6324-1
 N2H2            6.668-14
 N2O             2.4577-6
 N2O3            5.261-12
 N2O4            3.374-16
 N3              7.907-13
 N3H             5.770-14
 *O              1.5104-3
 *OH             4.7142-3
 *O2             9.4646-2
 O3              3.1410-8

  * THERMODYNAMIC PROPERTIES FITTED TO 20000.K









               THERMODYNAMIC EQUILIBRIUM PROPERTIES AT ASSIGNED

                            TEMPERATURE AND VOLUME

 CASE =                

             REACTANT                       MOLES         ENERGY      TEMP
                                                         KJ/KG-MOL      K
 FUEL        C6H6                         1.0000000     80537.766    300.000
 OXIDANT     O2                           7.5000000     -2439.995    300.000
 OXIDANT     N2                          28.2143000     -2440.472    300.000

 O/F=   21.98492  %FUEL=  4.350679  R,EQ.RATIO= 0.600000  PHI,EQ.RATIO= 0.600000

 THERMODYNAMIC PROPERTIES

 P, BAR            8.6779
 T, K             2500.00
 RHO, KG/CU M    1.2230 0
 H, KJ/KG         1144.69
 U, KJ/KG          435.13
 G, KJ/KG        -20845.2
 S, KJ/(KG)(K)     8.7960

 M, (1/n)          29.295
 (dLV/dLP)t      -1.00183
 (dLV/dLT)p        1.0485
 Cp, KJ/(KG)(K)    1.8037
 GAMMAs            1.2065
 SON VEL,M/SEC      925.3

 MOLE FRACTIONS

 *C              1.269-16
 *CN             2.185-13
 *CO             4.2627-3
 *CO2            9.3637-2
 COOH            1.9122-8
 *H              1.5734-4
 HCN             8.276-12
 HCO             8.214-10
 HNC             8.803-13
 HNCO            3.202-10
 HNO             2.9519-7
 HNO2            4.8319-7
 HNO3            1.361-10
 HO2             7.9511-6
 *H2             3.3869-4
 HCHO,formaldehy 5.100-12
 HCOOH           6.364-10
 H2O             4.6085-2
 H2O2            2.6462-7
 *N              8.6432-8
 NCO             9.539-11
 *NH             6.1837-9
 NH2             9.329-10
 NH3             4.942-10
 NH2OH           6.575-13
 *NO             1.3522-2
 NO2             2.1384-5
 NO3             9.433-11
 *N2             7.6049-1
 N2H2            8.954-14
 N2O             2.1805-6
 N2O3            3.701-12
 N2O4            2.113-16
 N3              7.854-13
 N3H             6.654-14
 *O              1.3484-3
 *OH             4.8859-3
 *O2             7.5237-2
 O3              2.2233-8

  * THERMODYNAMIC PROPERTIES FITTED TO 20000.K









               THERMODYNAMIC EQUILIBRIUM PROPERTIES AT ASSIGNED

                            TEMPERATURE AND VOLUME

 CASE =                

             REACTANT                       MOLES         ENERGY      TEMP
                                                         KJ/KG-MOL      K
 FUEL        C6H6                         1.0000000     80537.766    300.000
 OXIDANT     O2                           7.5000000     -2439.995    300.000
 OXIDANT     N2                          28.2143000     -2440.472    300.000

 O/F=   18.84422  %FUEL=  5.039252  R,EQ.RATIO= 0.700000  PHI,EQ.RATIO= 0.700000

 THERMODYNAMIC PROPERTIES

 P, BAR            8.6569
 T, K             2500.00
 RHO, KG/CU M    1.2230 0
 H, KJ/KG          900.92
 U, KJ/KG          193.08
 G, KJ/KG        -21097.2
 S, KJ/(KG)(K)     8.7993

 M, (1/n)          29.366
 (dLV/dLP)t      -1.00215
 (dLV/dLT)p        1.0573
 Cp, KJ/(KG)(K)    1.8718
 GAMMAs            1.2004
 SON VEL,M/SEC      921.8

 MOLE FRACTIONS

 *C              1.958-16
 *CN             3.363-13
 *CO             5.6877-3
 *CO2            1.0798-1
 COOH            2.5603-8
 *H              1.8312-4
 HCN             1.479-11
 HCO             1.2724-9
 HNC             1.573-12
 HNCO            4.946-10
 HNO             2.9604-7
 HNO2            4.1881-7
 HNO3            1.019-10
 HO2             6.9126-6
 *H2             4.5768-4
 HCHO,formaldehy 9.174-12
 HCOOH           9.893-10
 H2O             5.3824-2
 H2O2            2.6711-7
 *N              8.6380-8
 NCO             1.269-10
 *NH             7.1753-9
 NH2             1.2568-9
 NH3             7.730-10
 NH2OH           8.889-13
 *NO             1.1680-2
 NO2             1.5964-5
 NO3             6.086-11
 *N2             7.5774-1
 N2H2            1.203-13
 N2O             1.8778-6
 N2O3            2.381-12
 N2O4            1.175-16
 N3              7.802-13
 N3H             7.674-14
 *O              1.1683-3
 *OH             4.9148-3
 *O2             5.6337-2
 O3              1.4389-8

  * THERMODYNAMIC PROPERTIES FITTED TO 20000.K









               THERMODYNAMIC EQUILIBRIUM PROPERTIES AT ASSIGNED

                            TEMPERATURE AND VOLUME

 CASE =                

             REACTANT                       MOLES         ENERGY      TEMP
                                                         KJ/KG-MOL      K
 FUEL        C6H6                         1.0000000     80537.766    300.000
 OXIDANT     O2                           7.5000000     -2439.995    300.000
 OXIDANT     N2                          28.2143000     -2440.472    300.000

 O/F=   16.48869  %FUEL=  5.717981  R,EQ.RATIO= 0.800000  PHI,EQ.RATIO= 0.800000

 THERMODYNAMIC PROPERTIES

 P, BAR            8.6390
 T, K             2500.00
 RHO, KG/CU M    1.2230 0
 H, KJ/KG          665.68
 U, KJ/KG         -40.697
 G, KJ/KG        -21338.3
 S, KJ/(KG)(K)     8.8016

 M, (1/n)          29.427
 (dLV/dLP)t      -1.00259
 (dLV/dLT)p        1.0693
 Cp, KJ/(KG)(K)    1.9633
 GAMMAs            1.1933
 SON VEL,M/SEC      918.1

 MOLE FRACTIONS

 *C              3.259-16
 CH2OH           1.340-16
 *CN             5.580-13
 *CO             7.7813-3
 *CO2            1.2146-1
 COOH            3.3913-8
 *H              2.1608-4
 HCN             2.889-11
 HCO             2.0499-9
 HNC             3.073-12
 HNCO            7.945-10
 HNO             2.8639-7
 HNO2            3.3312-7
 HNO3            6.667-11
 HO2             5.5143-6
 *H2             6.3594-4
 HCHO,formaldehy 1.740-11
 HCOOH           1.5432-9
 H2O             6.1492-2
 H2O2            2.5091-7
 *N              8.6307-8
 NCO             1.731-10
 *NH             8.4422-9
 NH2             1.7413-9
 NH3             1.2611-9
 NH2OH           1.192-12
 *NO             9.5952-3
 NO2             1.0783-5
 NO3             3.380-11
 *N2             7.5490-1
 N2H2            1.661-13
 N2O             1.5381-6
 N2O3            1.318-12
 N3              7.750-13
 N3H             8.977-14
 *O              9.6255-4
 *OH             4.7683-3
 *O2             3.8165-2
 O3              8.0145-9

  * THERMODYNAMIC PROPERTIES FITTED TO 20000.K









               THERMODYNAMIC EQUILIBRIUM PROPERTIES AT ASSIGNED

                            TEMPERATURE AND VOLUME

 CASE =                

             REACTANT                       MOLES         ENERGY      TEMP
                                                         KJ/KG-MOL      K
 FUEL        C6H6                         1.0000000     80537.766    300.000
 OXIDANT     O2                           7.5000000     -2439.995    300.000
 OXIDANT     N2                          28.2143000     -2440.472    300.000

 O/F=   14.65661  %FUEL=  6.387078  R,EQ.RATIO= 0.900000  PHI,EQ.RATIO= 0.900000

 THERMODYNAMIC PROPERTIES

 P, BAR            8.6282
 T, K             2500.00
 RHO, KG/CU M    1.2230 0
 H, KJ/KG          447.08
 U, KJ/KG         -258.41
 G, KJ/KG        -21566.9
 S, KJ/(KG)(K)     8.8056

 M, (1/n)          29.464
 (dLV/dLP)t      -1.00324
 (dLV/dLT)p        1.0870
 Cp, KJ/(KG)(K)    2.0975
 GAMMAs            1.1845
 SON VEL,M/SEC      914.1

 MOLE FRACTIONS

 *C              6.409-16
 CH2             1.035-16
 CH3             1.998-16
 CH2OH           3.618-16
 *CN             1.094-12
 *CO             1.1424-2
 *CO2            1.3313-1
 COOH            4.5542-8
 C2O             1.001-16
 *H              2.6509-4
 HCN             6.943-11
 HCO             3.6875-9
 HNC             7.386-12
 HNCO            1.4253-9
 HNO             2.6156-7
 HNO2            2.2712-7
 HNO3            3.393-11
 HO2             3.7701-6
 *H2             9.5592-4
 HCHO,formaldehy 3.836-11
 HCOOH           2.5391-9
 H2O             6.9001-2
 H2O2            2.1019-7
 *N              8.6177-8
 NCO             2.534-10
 *NH             1.0328-8
 NH2             2.6102-9
 NH3             2.3162-9
 NH2OH           1.635-12
 *NO             7.1522-3
 NO2             6.0003-6
 NO3             1.404-11
 *N2             7.5168-1
 N2H2            2.484-13
 N2O             1.1433-6
 N2O3            5.461-13
 N3              7.696-13
 N3H             1.092-13
 *O              7.1946-4
 *OH             4.3670-3
 *O2             2.1296-2
 O3              3.3384-9

  * THERMODYNAMIC PROPERTIES FITTED TO 20000.K









               THERMODYNAMIC EQUILIBRIUM PROPERTIES AT ASSIGNED

                            TEMPERATURE AND VOLUME

 CASE =                

             REACTANT                       MOLES         ENERGY      TEMP
                                                         KJ/KG-MOL      K
 FUEL        C6H6                         1.0000000     80537.766    300.000
 OXIDANT     O2                           7.5000000     -2439.995    300.000
 OXIDANT     N2                          28.2143000     -2440.472    300.000

 O/F=   13.19095  %FUEL=  7.046744  R,EQ.RATIO= 1.000000  PHI,EQ.RATIO= 1.000000

 THERMODYNAMIC PROPERTIES

 P, BAR            8.6400
 T, K             2500.00
 RHO, KG/CU M    1.2230 0
 H, KJ/KG          278.27
 U, KJ/KG         -428.19
 G, KJ/KG        -21778.0
 S, KJ/(KG)(K)     8.8225

 M, (1/n)          29.423
 (dLV/dLP)t      -1.00384
 (dLV/dLT)p        1.1044
 Cp, KJ/(KG)(K)    2.2350
 GAMMAs            1.1770
 SON VEL,M/SEC      911.9

 MOLE FRACTIONS

 *C              1.859-15
 *CH             2.763-16
 CH2             5.510-16
 CH3             1.440-15
 CH2OH           1.567-15
 CH3O            2.546-16
 CH4             3.976-16
 *CN             3.167-12
 *CO             1.9909-2
 *CO2            1.3935-1
 COOH            6.4566-8
 OCCN            1.295-16
 C2O             5.067-16
 *H              3.5854-4
 HCN             2.721-10
 HCO             8.7034-9
 HNC             2.895-11
 HNCO            3.3554-9
 HNO             2.1194-7
 HNO2            1.1055-7
 HNO3            9.922-12
 HO2             1.8398-6
 *H2             1.7511-3
 HCHO,formaldehy 1.226-10
 HCOOH           4.8755-9
 H2O             7.5925-2
 H2O2            1.3892-7
 *N              8.5836-8
 NCO             4.405-10
 *NH             1.3933-8
 NH2             4.7691-9
 NH3             5.7318-9
 NH2OH           2.430-12
 *NO             4.2791-3
 NO2             2.1564-6
 NO3             3.031-12
 *N2             7.4677-1
 NCN             1.386-16
 N2H2            4.526-13
 N2O             6.8229-7
 N2O3            1.176-13
 N3              7.626-13
 N3H             1.466-13
 *O              4.3157-4
 *OH             3.5479-3
 *O2             7.6731-3
 O3              7.225-10

  * THERMODYNAMIC PROPERTIES FITTED TO 20000.K









               THERMODYNAMIC EQUILIBRIUM PROPERTIES AT ASSIGNED

                            TEMPERATURE AND VOLUME

 CASE =                

             REACTANT                       MOLES         ENERGY      TEMP
                                                         KJ/KG-MOL      K
 FUEL        C6H6                         1.0000000     80537.766    300.000
 OXIDANT     O2                           7.5000000     -2439.995    300.000
 OXIDANT     N2                          28.2143000     -2440.472    300.000

 O/F=   11.99177  %FUEL=  7.697178  R,EQ.RATIO= 1.100000  PHI,EQ.RATIO= 1.100000

 THERMODYNAMIC PROPERTIES

 P, BAR            8.7166
 T, K             2500.00
 RHO, KG/CU M    1.2230 0
 H, KJ/KG          252.19
 U, KJ/KG         -460.54
 G, KJ/KG        -21961.8
 S, KJ/(KG)(K)     8.8856

 M, (1/n)          29.164
 (dLV/dLP)t      -1.00247
 (dLV/dLT)p        1.0685
 Cp, KJ/(KG)(K)    1.9705
 GAMMAs            1.1943
 SON VEL,M/SEC      922.6

 MOLE FRACTIONS

 *C              8.499-15
 *CH             1.940-15
 CH2             5.946-15
 CH3             2.388-14
 CH2OH           1.179-14
 CH3O            1.916-15
 CH4             1.013-14
 CH3OH           8.933-16
 *CN             1.443-11
 *CO             4.1291-2
 *CO2            1.3114-1
 COOH            9.3361-8
 CH2CO,ketene    7.807-16
 HO(CO)2OH       1.391-16
 OCCN            1.235-15
 C2O             4.846-15
 *H              5.4607-4
 HCN             1.9059-9
 HCO             2.7736-8
 HCCO            2.510-16
 HNC             2.027-10
 HNCO            1.0664-8
 HNO             1.4607-7
 HNO2            3.4569-8
 HNO3            1.408-12
 HO2             5.7688-7
 *H2             4.0979-3
 HCHO,formaldehy 6.004-10
 HCOOH           1.0832-8
 H2O             8.0619-2
 H2O2            6.6931-8
 *N              8.4849-8
 NCO             9.111-10
 *NH             2.1163-8
 NH2             1.1130-8
 NH3             2.0554-8
 NH2OH           3.954-12
 *NO             1.9193-3
 NO2             4.3885-7
 NO3             2.799-13
 *N2             7.3617-1
 NCN             6.303-16
 N2H2            1.053-12
 N2O             3.0519-7
 N2O3            1.083-14
 N3              7.497-13
 N3H             2.214-13
 *O              1.9410-4
 *OH             2.4518-3
 *O2             1.5658-3
 O3              6.690-11

  * THERMODYNAMIC PROPERTIES FITTED TO 20000.K









               THERMODYNAMIC EQUILIBRIUM PROPERTIES AT ASSIGNED

                            TEMPERATURE AND VOLUME

 CASE =                

             REACTANT                       MOLES         ENERGY      TEMP
                                                         KJ/KG-MOL      K
 FUEL        C6H6                         1.0000000     80537.766    300.000
 OXIDANT     O2                           7.5000000     -2439.995    300.000
 OXIDANT     N2                          28.2143000     -2440.472    300.000

 O/F=   10.99246  %FUEL=  8.338573  R,EQ.RATIO= 1.200000  PHI,EQ.RATIO= 1.200000

 THERMODYNAMIC PROPERTIES

 P, BAR            8.8428
 T, K             2500.00
 RHO, KG/CU M    1.2230 0
 H, KJ/KG          338.72
 U, KJ/KG         -384.32
 G, KJ/KG        -22118.6
 S, KJ/(KG)(K)     8.9829

 M, (1/n)          28.748
 (dLV/dLP)t      -1.00131
 (dLV/dLT)p        1.0360
 Cp, KJ/(KG)(K)    1.7205
 GAMMAs            1.2182
 SON VEL,M/SEC      938.5

 MOLE FRACTIONS

 *C              2.885-14
 *CH             9.446-15
 CH2             4.151-14
 CH3             2.391-13
 CH2OH           5.956-14
 CH3O            9.682-15
 CH4             1.455-13
 CH3OH           6.474-15
 *CN             4.884-11
 *CO             7.0739-2
 *CO2            1.1340-1
 COOH            1.1578-7
 C2H2,acetylene  2.124-16
 CH2CO,ketene    9.472-15
 O(CH)2O         1.010-16
 HO(CO)2OH       2.170-16
 OCCN            7.263-15
 C2N2            1.317-16
 C2O             2.859-14
 C3O2            1.449-16
 *H              7.7197-4
 HCN             9.2485-9
 HCO             6.8147-8
 HCCO            2.124-15
 HNC             9.838-10
 HNCO            2.6118-8
 HNO             1.0389-7
 HNO2            1.2410-8
 HNO3            2.551-13
 HO2             2.0776-7
 *H2             8.3083-3
 HCHO,formaldehy 2.1156-9
 HCOOH           1.9265-8
 H2O             8.2499-2
 H2O2            3.4570-8
 *N              8.3375-8
 NCO             1.5560-9
 *NH             2.9823-8
 NH2             2.2495-8
 NH3             5.9575-8
 NH2OH           5.784-12
 *NO             9.5189-4
 NO2             1.0985-7
 NO3             3.536-14
 *N2             7.2109-1
 NCN             2.126-15
 N2H2            2.122-12
 N2O             1.5088-7
 N2O3            1.364-15
 N3              7.320-13
 N3H             3.101-13
 *O              9.6570-5
 *OH             1.7494-3
 *O2             3.9321-4
 O3              8.480-12

  * THERMODYNAMIC PROPERTIES FITTED TO 20000.K









               THERMODYNAMIC EQUILIBRIUM PROPERTIES AT ASSIGNED

                            TEMPERATURE AND VOLUME

 CASE =                

             REACTANT                       MOLES         ENERGY      TEMP
                                                         KJ/KG-MOL      K
 FUEL        C6H6                         1.0000000     80537.766    300.000
 OXIDANT     O2                           7.5000000     -2439.995    300.000
 OXIDANT     N2                          28.2143000     -2440.472    300.000

 O/F=   10.14689  %FUEL=  8.971116  R,EQ.RATIO= 1.300000  PHI,EQ.RATIO= 1.300000

 THERMODYNAMIC PROPERTIES

 P, BAR            8.9791
 T, K             2500.00
 RHO, KG/CU M    1.2230 0
 H, KJ/KG          450.38
 U, KJ/KG         -283.80
 G, KJ/KG        -22257.5
 S, KJ/(KG)(K)     9.0831

 M, (1/n)          28.312
 (dLV/dLP)t      -1.00091
 (dLV/dLT)p        1.0243
 Cp, KJ/(KG)(K)    1.6308
 GAMMAs            1.2316
 SON VEL,M/SEC      950.9

 MOLE FRACTIONS

 *C              6.812-14
 *CH             2.909-14
 CH2             1.667-13
 CH3             1.252-12
 CH2OH           1.862-13
 CH3O            3.027-14
 CH4             9.937-13
 CH3OH           2.639-14
 *CN             1.150-10
 *CO             9.9706-2
 *CO2            9.5392-2
 COOH            1.2701-7
 C2H2,acetylene  2.046-15
 CH2CO,ketene    5.445-14
 O(CH)2O         3.466-16
 HO(CO)2OH       2.652-16
 OCCN            2.447-14
 C2N2            7.406-16
 C2O             9.663-14
 C3O2            7.008-16
 *H              9.9145-4
 HCN             2.8389-8
 HCO             1.2526-7
 HCCO            9.362-15
 HNC             3.0198-9
 HNCO            4.7848-8
 HNO             7.9371-8
 HNO2            5.6586-9
 HNO3            6.941-14
 HO2             9.5045-8
 *H2             1.3915-2
 HCHO,formaldehy 5.0713-9
 HCOOH           2.7562-8
 H2O             8.2467-2
 H2O2            2.0624-8
 *N              8.1836-8
 NCO             2.1859-9
 *NH             3.8175-8
 NH2             3.7550-8
 NH3             1.2969-7
 NH2OH           7.515-12
 *NO             5.5763-4
 NO2             3.8409-8
 NO3             7.379-15
 *N2             7.0543-1
 NCN             4.987-15
 N2H2            3.531-12
 N2O             8.8095-8
 N2O3            2.836-16
 N3              7.138-13
 N3H             3.943-13
 *O              5.6761-5
 *OH             1.3409-3
 *O2             1.3794-4
 O3              1.775-12

  * THERMODYNAMIC PROPERTIES FITTED TO 20000.K









               THERMODYNAMIC EQUILIBRIUM PROPERTIES AT ASSIGNED

                            TEMPERATURE AND VOLUME

 CASE =                

             REACTANT                       MOLES         ENERGY      TEMP
                                                         KJ/KG-MOL      K
 FUEL        C6H6                         1.0000000     80537.766    300.000
 OXIDANT     O2                           7.5000000     -2439.995    300.000
 OXIDANT     N2                          28.2143000     -2440.472    300.000

 O/F=    9.42211  %FUEL=  9.594988  R,EQ.RATIO= 1.400000  PHI,EQ.RATIO= 1.400000

 THERMODYNAMIC PROPERTIES

 P, BAR            9.1165
 T, K             2500.00
 RHO, KG/CU M    1.2230 0
 H, KJ/KG          566.38
 U, KJ/KG         -179.04
 G, KJ/KG        -22383.3
 S, KJ/(KG)(K)     9.1799

 M, (1/n)          27.885
 (dLV/dLP)t      -1.00075
 (dLV/dLT)p        1.0194
 Cp, KJ/(KG)(K)    1.5954
 GAMMAs            1.2399
 SON VEL,M/SEC      961.4

 MOLE FRACTIONS

 *C              1.320-13
 *CH             6.951-14
 CH2             4.912-13
 CH3             4.550-12
 CH2OH           4.425-13
 CH3O            7.193-14
 CH4             4.451-12
 CH3OH           7.734-14
 *CN             2.220-10
 *CO             1.2640-1
 *CO2            7.9116-2
 COOH            1.2989-7
 C2H2,acetylene  1.186-14
 CH2CO,ketene    2.065-13
 O(CH)2O         8.600-16
 HO(CO)2OH       2.816-16
 OCCN            6.082-14
 C2N2            2.805-15
 C2O             2.410-13
 C3O2            2.250-15
 *H              1.2041-3
 HCN             6.7605-8
 HCO             1.9581-7
 HCCO            2.879-14
 HNC             7.1914-9
 HNCO            7.4543-8
 HNO             6.2848-8
 HNO2            2.9312-9
 HNO3            2.352-14
 HO2             4.9401-8
 *H2             2.0837-2
 HCHO,formaldehy 9.7747-9
 HCOOH           3.4754-8
 H2O             8.0787-2
 H2O2            1.3218-8
 *N              8.0332-8
 NCO             2.7619-9
 *NH             4.6205-8
 NH2             5.6040-8
 NH3             2.3865-7
 NH2OH           9.047-12
 *NO             3.5810-4
 NO2             1.6136-8
 NO3             2.028-15
 *N2             6.9013-1
 NCN             9.600-15
 N2H2            5.252-12
 N2H4            2.004-16
 N2O             5.6383-8
 N3              6.959-13
 N3H             4.740-13
 *O              3.6574-5
 *OH             1.0654-3
 *O2             5.8146-5
 O3              4.896-13

  * THERMODYNAMIC PROPERTIES FITTED TO 20000.K









               THERMODYNAMIC EQUILIBRIUM PROPERTIES AT ASSIGNED

                            TEMPERATURE AND VOLUME

 CASE =                

             REACTANT                       MOLES         ENERGY      TEMP
                                                         KJ/KG-MOL      K
 FUEL        C6H6                         1.0000000     80537.766    300.000
 OXIDANT     O2                           7.5000000     -2439.995    300.000
 OXIDANT     N2                          28.2143000     -2440.472    300.000

 O/F=    8.79397  %FUEL= 10.210367  R,EQ.RATIO= 1.500000  PHI,EQ.RATIO= 1.500000

 THERMODYNAMIC PROPERTIES

 P, BAR            9.2531
 T, K             2500.00
 RHO, KG/CU M    1.2230 0
 H, KJ/KG          682.17
 U, KJ/KG         -74.426
 G, KJ/KG        -22498.7
 S, KJ/(KG)(K)     9.2724

 M, (1/n)          27.473
 (dLV/dLP)t      -1.00068
 (dLV/dLT)p        1.0170
 Cp, KJ/(KG)(K)    1.5810
 GAMMAs            1.2458
 SON VEL,M/SEC      970.9

 MOLE FRACTIONS

 *C              2.283-13
 *CH             1.430-13
 CH2             1.202-12
 CH3             1.324-11
 CH2OH           8.869-13
 CH3O            1.442-13
 CH4             1.540-11
 CH3OH           1.844-13
 *CN             3.827-10
 *CO             1.5056-1
 *CO2            6.4909-2
 COOH            1.2675-7
 C2H             1.795-16
 C2H2,acetylene  5.093-14
 CH2CO,ketene    6.107-13
 O(CH)2O         1.752-15
 HO(CO)2OH       2.722-16
 OCCN            1.267-13
 C2N2            8.456-15
 C2O             5.039-13
 C3O2            5.687-15
 *H              1.4109-3
 HCN             1.3858-7
 HCO             2.7740-7
 HCCO            7.160-14
 HNC             1.4741-8
 HNCO            1.0525-7
 HNO             5.0556-8
 HNO2            1.6241-9
 HNO3            8.978-15
 HO2             2.7465-8
 *H2             2.9042-2
 HCHO,formaldehy 1.6471-8
 HCOOH           4.0337-8
 H2O             7.7557-2
 H2O2            8.7402-9
 *N              7.8878-8
 NCO             3.2786-9
 *NH             5.3962-8
 NH2             7.7843-8
 NH3             3.9429-7
 NH2OH           1.030-11
 *NO             2.4219-4
 NO2             7.5170-9
 NO3             6.508-16
 *N2             6.7536-1
 NCN             1.649-14
 N2H2            7.271-12
 N2H4            3.925-16
 N2O             3.8005-8
 N3              6.787-13
 N3H             5.498-13
 *O              2.4819-5
 *OH             8.5991-4
 *O2             2.7179-5
 O3              1.576-13

  * THERMODYNAMIC PROPERTIES FITTED TO 20000.K









               THERMODYNAMIC EQUILIBRIUM PROPERTIES AT ASSIGNED

                            TEMPERATURE AND VOLUME

 CASE =                

             REACTANT                       MOLES         ENERGY      TEMP
                                                         KJ/KG-MOL      K
 FUEL        C6H6                         1.0000000     80537.766    300.000
 OXIDANT     O2                           7.5000000     -2439.995    300.000
 OXIDANT     N2                          28.2143000     -2440.472    300.000

 O/F=    8.24434  %FUEL= 10.817425  R,EQ.RATIO= 1.600000  PHI,EQ.RATIO= 1.600000

 THERMODYNAMIC PROPERTIES

 P, BAR            9.3885
 T, K             2500.00
 RHO, KG/CU M    1.2230 0
 H, KJ/KG          796.37
 U, KJ/KG          28.706
 G, KJ/KG        -22605.2
 S, KJ/(KG)(K)     9.3606

 M, (1/n)          27.077
 (dLV/dLP)t      -1.00065
 (dLV/dLT)p        1.0158
 Cp, KJ/(KG)(K)    1.5765
 GAMMAs            1.2505
 SON VEL,M/SEC      979.8

 MOLE FRACTIONS

 *C              3.677-13
 *CH             2.669-13
 CH2             2.599-12
 CH3             3.318-11
 CH2OH           1.579-12
 CH3O            2.566-13
 CH4             4.474-11
 CH3OH           3.803-13
 *CN             6.143-10
 CNN             1.010-16
 *CO             1.7225-1
 *CO2            5.2743-2
 COOH            1.1935-7
 C2H             5.474-16
 C2H2,acetylene  1.800-13
 C2H2,vinylidene 1.404-16
 CH2CO,ketene    1.533-12
 O(CH)2O         3.124-15
 HO(CO)2OH       2.448-16
 CH3CN           1.075-16
 CH3CO,acetyl    2.791-16
 OCCN            2.361-13
 C2N2            2.211-14
 C2O             9.421-13
 C3O2            1.234-14
 *H              1.6114-3
 HCN             2.5779-7
 HCO             3.6775-7
 HCCO            1.551-13
 HNC             2.7422-8
 HNCO            1.3906-7
 HNO             4.0873-8
 HNO2            9.326-10
 HNO3            3.662-15
 HO2             1.5824-8
 *H2             3.8436-2
 HCHO,formaldehy 2.5302-8
 HCOOH           4.4012-8
 H2O             7.2903-2
 H2O2            5.8354-9
 *N              7.7480-8
 NCO             3.7383-9
 *NH             6.1422-8
 NH2             1.0268-7
 NH3             6.0266-7
 NH2OH           1.118-11
 *NO             1.6897-4
 NO2             3.7249-9
 NO3             2.290-16
 *N2             6.6116-1
 NCN             2.638-14
 N2H2            9.558-12
 N2H4            6.929-16
 N2O             2.6426-8
 N3              6.622-13
 N3H             6.217-13
 *O              1.7374-5
 *OH             6.9755-4
 *O2             1.3513-5
 O3              5.567-14

  * THERMODYNAMIC PROPERTIES FITTED TO 20000.K









               THERMODYNAMIC EQUILIBRIUM PROPERTIES AT ASSIGNED

                            TEMPERATURE AND VOLUME

 CASE =                

             REACTANT                       MOLES         ENERGY      TEMP
                                                         KJ/KG-MOL      K
 FUEL        C6H6                         1.0000000     80537.766    300.000
 OXIDANT     O2                           7.5000000     -2439.995    300.000
 OXIDANT     N2                          28.2143000     -2440.472    300.000

 O/F=    7.75938  %FUEL= 11.416329  R,EQ.RATIO= 1.700000  PHI,EQ.RATIO= 1.700000

 THERMODYNAMIC PROPERTIES

 P, BAR            9.5224
 T, K             2500.00
 RHO, KG/CU M    1.2230 0
 H, KJ/KG          908.52
 U, KJ/KG          129.91
 G, KJ/KG        -22703.8
 S, KJ/(KG)(K)     9.4449

 M, (1/n)          26.697
 (dLV/dLP)t      -1.00064
 (dLV/dLT)p        1.0152
 Cp, KJ/(KG)(K)    1.5774
 GAMMAs            1.2545
 SON VEL,M/SEC      988.3

 MOLE FRACTIONS

 *C              5.658-13
 *CH             4.662-13
 CH2             5.155-12
 CH3             7.473-11
 CH2OH           2.571-12
 CH3O            4.180-13
 CH4             1.144-10
 CH3OH           7.033-13
 *CN             9.420-10
 CNN             1.544-16
 *CO             1.9166-1
 *CO2            4.2444-2
 COOH            1.0905-7
 C2H             1.492-15
 C2H2,acetylene  5.572-13
 C2H2,vinylidene 4.345-16
 CH2CO,ketene    3.432-12
 O(CH)2O         5.058-15
 HO(CO)2OH       2.073-16
 CH3CN           3.766-16
 CH3CO,acetyl    7.094-16
 C2H4            1.916-16
 OCCN            4.087-13
 C2N2            5.274-14
 C2O             1.636-12
 C3O2            2.419-14
 *H              1.8039-3
 HCN             4.4884-7
 HCO             4.6462-7
 HCCO            3.058-13
 HNC             4.7746-8
 HNCO            1.7510-7
 HNO             3.2980-8
 HNO2            5.442-10
 HNO3            1.545-15
 HO2             9.2650-9
 *H2             4.8854-2
 HCHO,formaldehy 3.6296-8
 HCOOH           4.5660-8
 H2O             6.7015-2
 H2O2            3.8793-9
 *N              7.6135-8
 NCO             4.1458-9
 *NH             6.8529-8
 NH2             1.3007-7
 NH3             8.6682-7
 NH2OH           1.163-11
 *NO             1.2008-4
 NO2             1.9144-9
 *N2             6.4751-1
 NCN             4.032-14
 N2H2            1.207-11
 N2H4            1.128-15
 N2O             1.8717-8
 N3              6.464-13
 N3H             6.889-13
 *O              1.2388-5
 *OH             5.6473-4
 *O2             6.9684-6
 O3              2.076-14

  * THERMODYNAMIC PROPERTIES FITTED TO 20000.K









               THERMODYNAMIC EQUILIBRIUM PROPERTIES AT ASSIGNED

                            TEMPERATURE AND VOLUME

 CASE =                

             REACTANT                       MOLES         ENERGY      TEMP
                                                         KJ/KG-MOL      K
 FUEL        C6H6                         1.0000000     80537.766    300.000
 OXIDANT     O2                           7.5000000     -2439.995    300.000
 OXIDANT     N2                          28.2143000     -2440.472    300.000

 O/F=    7.32831  %FUEL= 12.007243  R,EQ.RATIO= 1.800000  PHI,EQ.RATIO= 1.800000

 THERMODYNAMIC PROPERTIES

 P, BAR            9.6546
 T, K             2500.00
 RHO, KG/CU M    1.2230 0
 H, KJ/KG         1018.51
 U, KJ/KG          229.09
 G, KJ/KG        -22795.3
 S, KJ/(KG)(K)     9.5255

 M, (1/n)          26.331
 (dLV/dLP)t      -1.00064
 (dLV/dLT)p        1.0150
 Cp, KJ/(KG)(K)    1.5813
 GAMMAs            1.2580
 SON VEL,M/SEC      996.5

 MOLE FRACTIONS

 *C              8.462-13
 *CH             7.786-13
 CH2             9.615-12
 CH3             1.556-10
 CH2OH           3.906-12
 CH3O            6.349-13
 CH4             2.661-10
 CH3OH           1.193-12
 *CN             1.4042-9
 CNN             2.294-16
 *CO             2.0908-1
 *CO2            3.3771-2
 COOH            9.6888-8
 C2H             3.780-15
 C2H2,acetylene  1.576-12
 C2H2,vinylidene 1.229-15
 CH2CO,ketene    7.080-12
 O(CH)2O         7.610-15
 HO(CO)2OH       1.659-16
 C2H3,vinyl      1.855-16
 CH3CN           1.185-15
 CH3CO,acetyl    1.634-15
 C2H4            6.758-16
 CH3CHO,ethanal  1.335-16
 OCCN            6.738-13
 C2N2            1.188-13
 C2O             2.706-12
 C3O2            4.425-14
 *H              1.9868-3
 HCN             7.4715-7
 HCO             5.6599-7
 HCCO            5.650-13
 HNC             7.9478-8
 HNCO            2.1260-7
 HNO             2.6405-8
 HNO2            3.178-10
 HNO3            6.582-16
 HO2             5.4286-9
 *H2             6.0087-2
 HCHO,formaldehy 4.9375-8
 HCOOH           4.5303-8
 H2O             6.0118-2
 H2O2            2.5382-9
 *N              7.4842-8
 NCO             4.5075-9
 *NH             7.5227-8
 NH2             1.5944-7
 NH3             1.1866-6
 NH2OH           1.161-11
 *NO             8.6096-5
 NO2             1.0011-9
 *N2             6.3440-1
 NCN             5.990-14
 N2H2            1.474-11
 N2H4            1.718-15
 N2O             1.3375-8
 N3              6.312-13
 N3H             7.513-13
 *O              8.9121-6
 *OH             4.5367-4
 *O2             3.6563-6
 O3              7.945-15

  * THERMODYNAMIC PROPERTIES FITTED TO 20000.K









               THERMODYNAMIC EQUILIBRIUM PROPERTIES AT ASSIGNED

                            TEMPERATURE AND VOLUME

 CASE =                

             REACTANT                       MOLES         ENERGY      TEMP
                                                         KJ/KG-MOL      K
 FUEL        C6H6                         1.0000000     80537.766    300.000
 OXIDANT     O2                           7.5000000     -2439.995    300.000
 OXIDANT     N2                          28.2143000     -2440.472    300.000

 O/F=    6.94261  %FUEL= 12.590326  R,EQ.RATIO= 1.900000  PHI,EQ.RATIO= 1.900000

 THERMODYNAMIC PROPERTIES

 P, BAR            9.7852
 T, K             2500.00
 RHO, KG/CU M    1.2230 0
 H, KJ/KG         1126.38
 U, KJ/KG          326.28
 G, KJ/KG        -22880.2
 S, KJ/(KG)(K)     9.6026

 M, (1/n)          25.980
 (dLV/dLP)t      -1.00065
 (dLV/dLT)p        1.0150
 Cp, KJ/(KG)(K)    1.5870
 GAMMAs            1.2612
 SON VEL,M/SEC     1004.5

 MOLE FRACTIONS

 *C              1.248-12
 *CH             1.265-12
 CH2             1.720-11
 CH3             3.067-10
 CH2OH           5.611-12
 CH3O            9.120-13
 CH4             5.774-10
 CH3OH           1.887-12
 *CN             2.0641-9
 CNN             3.361-16
 *CO             2.2478-1
 *CO2            2.6465-2
 COOH            8.3625-8
 C2H             9.178-15
 C2H2,acetylene  4.215-12
 C2H2,vinylidene 3.287-15
 CH2CO,ketene    1.380-11
 O(CH)2O         1.081-14
 HO(CO)2OH       1.253-16
 C2H3,vinyl      5.465-16
 CH3CN           3.480-15
 CH3CO,acetyl    3.509-15
 C2H4            2.192-15
 CH3CHO,ethanal  3.156-16
 OCCN            1.079-12
 C2N2            2.602-13
 C2O             4.349-12
 C3O2            7.749-14
 *H              2.1591-3
 HCN             1.2097-6
 HCO             6.7018-7
 HCCO            *****-13
 HNC             1.2868-7
 HNCO            2.5090-7
 HNO             2.0847-8
 HNO2            1.829-10
 HNO3            2.761-16
 HO2             3.1344-9
 *H2             7.1915-2
 HCHO,formaldehy 6.4391-8
 HCOOH           4.3066-8
 H2O             5.2447-2
 H2O2            1.6141-9
 *N              7.3599-8
 NCO             4.8299-9
 *NH             8.1477-8
 NH2             1.9020-7
 NH3             1.5590-6
 NH2OH           1.112-11
 *NO             6.1715-5
 NO2             5.231-10
 *N2             6.2180-1
 NCN             8.777-14
 N2H2            1.753-11
 N2H4            2.478-15
 N2O             9.5557-9
 N3              6.166-13
 N3H             8.083-13
 *O              6.4095-6
 *OH             3.5935-4
 *O2             1.9168-6
 O3              3.036-15

  * THERMODYNAMIC PROPERTIES FITTED TO 20000.K









               THERMODYNAMIC EQUILIBRIUM PROPERTIES AT ASSIGNED

                            TEMPERATURE AND VOLUME

 CASE =                

             REACTANT                       MOLES         ENERGY      TEMP
                                                         KJ/KG-MOL      K
 FUEL        C6H6                         1.0000000     80537.766    300.000
 OXIDANT     O2                           7.5000000     -2439.995    300.000
 OXIDANT     N2                          28.2143000     -2440.472    300.000

 O/F=    6.59548  %FUEL= 13.165732  R,EQ.RATIO= 2.000000  PHI,EQ.RATIO= 2.000000

 THERMODYNAMIC PROPERTIES

 P, BAR            9.9141
 T, K             2500.00
 RHO, KG/CU M    1.2230 0
 H, KJ/KG         1232.22
 U, KJ/KG          421.59
 G, KJ/KG        -22959.0
 S, KJ/(KG)(K)     9.6765

 M, (1/n)          25.642
 (dLV/dLP)t      -1.00067
 (dLV/dLT)p        1.0151
 Cp, KJ/(KG)(K)    1.5940
 GAMMAs            1.2641
 SON VEL,M/SEC     1012.3

 MOLE FRACTIONS

 *C              1.841-12
 *CH             2.032-12
 CH2             3.009-11
 CH3             5.839-10
 CH2OH           7.700-12
 CH3O            1.251-12
 CH4             1.1971-9
 CH3OH           2.820-12
 *CN             3.0356-9
 CNN             4.926-16
 *CO             2.3903-1
 *CO2            2.0282-2
 COOH            6.9774-8
 C2H             2.204-14
 C2H2,acetylene  1.102-11
 C2H2,vinylidene 8.593-15
 CH2CO,ketene    2.601-11
 O(CH)2O         1.469-14
 C2H3,vinyl      1.556-15
 CH3CN           9.873-15
 CH3CO,acetyl    7.198-15
 C2H4            6.794-15
 CH3CHO,ethanal  7.049-16
 CNC             1.034-16
 OCCN            1.710-12
 C2N2            5.702-13
 C2O             6.914-12
 C3O2            1.327-13
 *H              2.3201-3
 HCN             1.9368-6
 HCO             7.7589-7
 HCCO            1.731-12
 HNC             2.0603-7
 HNCO            2.8952-7
 HNO             1.6091-8
 HNO2            1.017-10
 HNO3            1.107-16
 HO2             1.7494-9
 *H2             8.4134-2
 HCHO,formaldehy 8.1162-8
 HCOOH           3.9121-8
 H2O             4.4221-2
 H2O2            9.808-10
 *N              7.2403-8
 NCO             5.1191-9
 *NH             8.7264-8
 NH2             2.2178-7
 NH3             1.9791-6
 NH2OH           1.017-11
 *NO             4.3755-5
 NO2             2.673-10
 *N2             6.0968-1
 NCN             1.286-13
 N2H2            2.037-11
 N2H4            3.414-15
 N2O             6.7525-9
 N3              6.026-13
 N3H             8.600-13
 *O              4.5592-6
 *OH             2.7830-4
 *O2             9.8264-7
 O3              1.122-15

  * THERMODYNAMIC PROPERTIES FITTED TO 20000.K



