*******************************************************************************

         NASA-GLENN CHEMICAL EQUILIBRIUM PROGRAM CEA2, FEBRUARY 5, 2004
                   BY  BONNIE MCBRIDE AND SANFORD GORDON
      REFS: NASA RP-1311, PART I, 1994 AND NASA RP-1311, PART II, 1996

 *******************************************************************************



  
 ### CEA analysis performed on Mon 11-Jul-2022 12:22:36
  
 # Problem Type: "Assigned Temperature and Volume (or Density)"
  
 prob case=test___________5469 tv
  
 # Temperature (1 value):
 t,k= 3000
 # Density (1 value):
 rho,kg/m**3= 1.1408
  
 # Equivalence based on Fuel/Oxid. wt ratio (Eq 9.19*) (1 value):
 phi= 0.7
  
 # You selected the following fuels and oxidizers:
 reac
 fuel CH4              mole=100.0000  t,k= 300.000
 oxid Air              mole=100.0000  t,k= 300.000
  
 # You selected these options for output:
 # short version of output
 output short
 # Proportions of any products will be expressed as Mole Fractions.
 # Heat will be expressed as siunits
 output siunits
 # Trace variable:
 output trace=1e-16
  
 # Input prepared by this script:/var/www/sites/cearun.grc.nasa.gov/cgi-bin/CEARU
 N/prepareInputFile.cgi
  
 ### IMPORTANT:  The following line is the end of your CEA input file!
 end




               THERMODYNAMIC EQUILIBRIUM PROPERTIES AT ASSIGNED

                            TEMPERATURE AND VOLUME

 CASE = test___________

             REACTANT                       MOLES         ENERGY      TEMP
                                                         KJ/KG-MOL      K
 FUEL        CH4                        100.0000000    -77028.260    300.000
 OXIDANT     Air                        100.0000000     -2566.042    300.000

 O/F=   24.62646  %FUEL=  3.902217  R,EQ.RATIO= 0.700456  PHI,EQ.RATIO= 0.700000

 THERMODYNAMIC PROPERTIES

 P, BAR            10.412
 T, K             3000.00
 RHO, KG/CU M    1.1408 0
 H, KJ/KG         2092.47
 U, KJ/KG         1179.76
 G, KJ/KG        -26665.5
 S, KJ/(KG)(K)     9.5860

 M, (1/n)          27.329
 (dLV/dLP)t      -1.01058
 (dLV/dLT)p        1.2266
 Cp, KJ/(KG)(K)    3.0423
 GAMMAs            1.1626
 SON VEL,M/SEC     1030.1

 MOLE FRACTIONS

 *Ar             8.4912-3
 *C              5.727-13
 *CH             6.881-14
 CH2             5.415-14
 CH3             4.317-14
 CH2OH           3.505-14
 CH3O            8.288-15
 CH4             4.766-15
 CH3OH           8.640-16
 *CN             1.060-10
 CNN             1.004-16
 *CO             2.0879-2
 *CO2            4.5886-2
 COOH            1.9325-7
 CH2CO,ketene    3.449-16
 OCCN            2.379-15
 C2O             1.689-14
 *H              4.0689-3
 HCN             1.7668-9
 HCO             6.7449-8
 HCCO            4.836-16
 HNC             3.077-10
 HNCO            8.1308-9
 HNO             2.7435-6
 HNO2            9.5121-7
 HNO3            1.646-10
 HO2             2.8540-5
 *H2             6.8919-3
 HCHO,formaldehy 6.169-10
 HCOOH           9.1379-9
 H2O             1.1210-1
 H2O2            1.4251-6
 *N              3.5991-6
 NCO             3.7953-9
 *NH             4.6992-7
 NH2             8.8183-8
 NH3             3.4110-8
 NH2OH           4.505-11
 *NO             2.2102-2
 NO2             2.0479-5
 NO3             1.190-10
 *N2             6.9692-1
 N2O             3.9012-6
 NCN             8.999-15
 N2H2            1.212-11
 NH2NO2          1.246-15
 N2O3            5.809-12
 N2O4            1.806-16
 N3              2.717-11
 N3H             3.594-12
 *O              7.9098-3
 *OH             2.3810-2
 *O2             5.0878-2
 O3              4.9809-8

  * THERMODYNAMIC PROPERTIES FITTED TO 20000.K



