*******************************************************************************

         NASA-GLENN CHEMICAL EQUILIBRIUM PROGRAM CEA2, FEBRUARY 5, 2004
                   BY  BONNIE MCBRIDE AND SANFORD GORDON
      REFS: NASA RP-1311, PART I, 1994 AND NASA RP-1311, PART II, 1996

 *******************************************************************************



  
 ### CEA analysis performed on Mon 11-Jul-2022 12:24:00
  
 # Problem Type: "Assigned Temperature and Volume (or Density)"
  
 prob case=test___________5469 tv
  
 # Temperature (1 value):
 t,k= 3000
 # Density (1 value):
 rho,kg/m**3= 1.1314
  
 # Equivalence based on Fuel/Oxid. wt ratio (Eq 9.19*) (1 value):
 phi= 0.9
  
 # You selected the following fuels and oxidizers:
 reac
 fuel CH4              mole=100.0000  t,k= 300.000
 oxid Air              mole=100.0000  t,k= 300.000
  
 # You selected these options for output:
 # short version of output
 output short
 # Proportions of any products will be expressed as Mole Fractions.
 # Heat will be expressed as siunits
 output siunits
 # Trace variable:
 output trace=1e-16
  
 # Input prepared by this script:/var/www/sites/cearun.grc.nasa.gov/cgi-bin/CEARU
 N/prepareInputFile.cgi
  
 ### IMPORTANT:  The following line is the end of your CEA input file!
 end




               THERMODYNAMIC EQUILIBRIUM PROPERTIES AT ASSIGNED

                            TEMPERATURE AND VOLUME

 CASE = test___________

             REACTANT                       MOLES         ENERGY      TEMP
                                                         KJ/KG-MOL      K
 FUEL        CH4                        100.0000000    -77028.260    300.000
 OXIDANT     Air                        100.0000000     -2566.042    300.000

 O/F=   19.15391  %FUEL=  4.961816  R,EQ.RATIO= 0.900152  PHI,EQ.RATIO= 0.900000

 THERMODYNAMIC PROPERTIES

 P, BAR            10.497
 T, K             3000.00
 RHO, KG/CU M    1.1314 0
 H, KJ/KG         1759.55
 U, KJ/KG          831.80
 G, KJ/KG        -27490.0
 S, KJ/(KG)(K)     9.7498

 M, (1/n)          26.886
 (dLV/dLP)t      -1.01235
 (dLV/dLT)p        1.2659
 Cp, KJ/(KG)(K)    3.3595
 GAMMAs            1.1563
 SON VEL,M/SEC     1035.7

 MOLE FRACTIONS

 *Ar             8.2615-3
 *C              1.243-12
 *CH             1.984-13
 CH2             2.074-13
 CH3             2.196-13
 CH2OH           1.275-13
 CH3O            3.016-14
 CH4             3.220-14
 CH3OH           4.176-15
 *CN             2.284-10
 CNN             2.146-16
 *CO             3.2436-2
 *CO2            5.1002-2
 COOH            2.8527-7
 CH2CO,ketene    2.069-15
 HO(CO)2OH       1.628-16
 OCCN            8.028-15
 C2O             5.742-14
 *H              5.3605-3
 HCN             5.0568-9
 HCO             1.3916-7
 HCCO            2.184-15
 HNC             8.805-10
 HNCO            1.6650-8
 HNO             2.5668-6
 HNO2            6.3674-7
 HNO3            7.884-11
 HO2             1.9248-5
 *H2             1.2059-2
 HCHO,formaldehy 1.6903-9
 HCOOH           1.7915-8
 H2O             1.4034-1
 H2O2            1.2764-6
 *N              3.5436-6
 NCO             5.8520-9
 *NH             6.1447-7
 NH2             1.5314-7
 NH3             7.8671-8
 NH2OH           7.434-11
 *NO             1.5569-2
 NO2             1.0322-5
 NO3             4.292-11
 *N2             6.8104-1
 N2O             2.7277-6
 NCN             1.925-14
 N2H2            2.088-11
 NH2NO2          1.099-15
 N2H4            1.931-16
 N2O3            2.079-12
 N3              2.635-11
 N3H             4.630-12
 *O              5.6139-3
 *OH             2.2444-2
 *O2             2.5837-2
 O3              1.8097-8

  * THERMODYNAMIC PROPERTIES FITTED TO 20000.K



