*******************************************************************************

         NASA-GLENN CHEMICAL EQUILIBRIUM PROGRAM CEA2, FEBRUARY 5, 2004
                   BY  BONNIE MCBRIDE AND SANFORD GORDON
      REFS: NASA RP-1311, PART I, 1994 AND NASA RP-1311, PART II, 1996

 *******************************************************************************



  
 ### CEA analysis performed on Mon 11-Jul-2022 13:07:14
  
 # Problem Type: "Assigned Temperature and Volume (or Density)"
  
 prob case=test___________5469 tv
  
 # Temperature (1 value):
 t,k= 3000
 # Density (1 value):
 rho,kg/m**3= 1.0244
  
 # Equivalence based on Fuel/Oxid. wt ratio (Eq 9.19*) (1 value):
 phi= 3.9
  
 # You selected the following fuels and oxidizers:
 reac
 fuel CH4              mole=100.0000  t,k= 300.000
 oxid Air              mole=100.0000  t,k= 300.000
  
 # You selected these options for output:
 # short version of output
 output short
 # Proportions of any products will be expressed as Mole Fractions.
 # Heat will be expressed as siunits
 output siunits
 # Trace variable:
 output trace=1e-16
  
 # Input prepared by this script:/var/www/sites/cearun.grc.nasa.gov/cgi-bin/CEARU
 N/prepareInputFile.cgi
  
 ### IMPORTANT:  The following line is the end of your CEA input file!
 end




               THERMODYNAMIC EQUILIBRIUM PROPERTIES AT ASSIGNED

                            TEMPERATURE AND VOLUME

 CASE = test___________

             REACTANT                       MOLES         ENERGY      TEMP
                                                         KJ/KG-MOL      K
 FUEL        CH4                        100.0000000    -77028.260    300.000
 OXIDANT     Air                        100.0000000     -2566.042    300.000

 O/F=    4.42013  %FUEL= 18.449729  R,EQ.RATIO= 3.895590  PHI,EQ.RATIO= 3.900000

 THERMODYNAMIC PROPERTIES

 P, BAR            14.688
 T, K             3000.00
 RHO, KG/CU M    1.0244 0
 H, KJ/KG         4175.75
 U, KJ/KG         2741.91
 G, KJ/KG        -35256.1
 S, KJ/(KG)(K)    13.1439

 M, (1/n)          17.396
 (dLV/dLP)t      -1.00657
 (dLV/dLT)p        1.1172
 Cp, KJ/(KG)(K)    3.1450
 GAMMAs            1.2242
 SON VEL,M/SEC     1324.9

 MOLE FRACTIONS

 *Ar             4.5868-3
 *C              6.8198-9
 *CH             7.2469-9
 CH2             5.0445-8
 CH3             3.5573-7
 CH2OH           2.319-10
 CH3O            5.484-11
 CH4             3.4736-7
 CH3OH           5.056-11
 *CN             1.1105-6
 CNN             9.248-13
 *CO             1.9967-1
 *CO2            3.5239-4
 COOH            1.3127-8
 *C2             8.309-12
 C2H             1.0876-9
 C2H2,acetylene  9.3406-8
 C2H2,vinylidene 2.946-10
 CH2CO,ketene    4.3348-9
 O(CH)2O         1.339-13
 C2H3,vinyl      5.575-11
 CH3CN           5.672-11
 CH3CO,acetyl    4.428-12
 C2H4            8.903-11
 C2H4O,ethylen-o 2.480-16
 CH3CHO,ethanal  3.051-13
 CH3COOH         7.017-16
 C2H5            9.339-14
 C2H6            1.617-14
 CCN             5.082-14
 CNC             4.987-12
 OCCN            3.361-10
 C2N2            1.4094-9
 C2O             2.7130-9
 *C3             1.646-13
 C3H3,1-propynl  8.283-16
 C3H3,2-propynl  4.941-13
 C3H4,allene     1.175-14
 C3H4,propyne    2.501-14
 C3H4,cyclo-     2.815-16
 C3H5,allyl      1.594-16
 CNCOCN          1.632-16
 C3O2            8.227-12
 C4H2,butadiyne  9.468-15
 C4N2            1.155-16
 *H              2.5511-2
 HCN             1.6371-4
 HCO             5.7050-6
 HCCN            1.950-13
 HCCO            6.871-10
 HNC             2.8506-5
 HNCO            6.0500-7
 HNO             1.2153-8
 HNO2            3.384-12
 HO2             1.154-10
 *H2             3.8220-1
 HCHO,formaldehy 4.6149-7
 HCOOH           5.4900-9
 H2O             4.9925-3
 H2O2            5.097-11
 *N              2.2445-6
 NCO             3.1929-8
 *NH             2.5919-6
 NH2             4.3021-6
 NH3             1.4718-5
 NH2OH           1.561-11
 *NO             1.1069-5
 NO2             8.236-12
 *N2             3.8233-1
 N2O             1.7187-9
 NCN             8.293-11
 N2H2            5.200-10
 N2H4            2.132-13
 N3              1.311-11
 N3H             1.534-11
 *O              4.5029-6
 *OH             1.1989-4
 *O2             2.3260-8

  * THERMODYNAMIC PROPERTIES FITTED TO 20000.K


