*******************************************************************************

         NASA-GLENN CHEMICAL EQUILIBRIUM PROGRAM CEA2, FEBRUARY 5, 2004
                   BY  BONNIE MCBRIDE AND SANFORD GORDON
      REFS: NASA RP-1311, PART I, 1994 AND NASA RP-1311, PART II, 1996

 *******************************************************************************



  
 ### CEA analysis performed on Mon 11-Jul-2022 13:06:20
  
 # Problem Type: "Assigned Temperature and Volume (or Density)"
  
 prob case=test___________5469 tv
  
 # Temperature (1 value):
 t,k= 3000
 # Density (1 value):
 rho,kg/m**3= 1.0300
  
 # Equivalence based on Fuel/Oxid. wt ratio (Eq 9.19*) (1 value):
 phi= 3.7
  
 # You selected the following fuels and oxidizers:
 reac
 fuel CH4              mole=100.0000  t,k= 300.000
 oxid Air              mole=100.0000  t,k= 300.000
  
 # You selected these options for output:
 # short version of output
 output short
 # Proportions of any products will be expressed as Mole Fractions.
 # Heat will be expressed as siunits
 output siunits
 # Trace variable:
 output trace=1e-16
  
 # Input prepared by this script:/var/www/sites/cearun.grc.nasa.gov/cgi-bin/CEARU
 N/prepareInputFile.cgi
  
 ### IMPORTANT:  The following line is the end of your CEA input file!
 end




               THERMODYNAMIC EQUILIBRIUM PROPERTIES AT ASSIGNED

                            TEMPERATURE AND VOLUME

 CASE = test___________

             REACTANT                       MOLES         ENERGY      TEMP
                                                         KJ/KG-MOL      K
 FUEL        CH4                        100.0000000    -77028.260    300.000
 OXIDANT     Air                        100.0000000     -2566.042    300.000

 O/F=    4.65906  %FUEL= 17.670779  R,EQ.RATIO= 3.695895  PHI,EQ.RATIO= 3.700000

 THERMODYNAMIC PROPERTIES

 P, BAR            14.446
 T, K             3000.00
 RHO, KG/CU M    1.0300 0
 H, KJ/KG         3987.28
 U, KJ/KG         2584.74
 G, KJ/KG        -34890.3
 S, KJ/(KG)(K)    12.9592

 M, (1/n)          17.785
 (dLV/dLP)t      -1.00641
 (dLV/dLT)p        1.1171
 Cp, KJ/(KG)(K)    3.0911
 GAMMAs            1.2230
 SON VEL,M/SEC     1309.7

 MOLE FRACTIONS

 *Ar             4.7340-3
 *C              2.1653-9
 *CH             2.2280-9
 CH2             1.5017-8
 CH3             1.0254-7
 CH2OH           2.056-10
 CH3O            4.861-11
 CH4             9.6957-8
 CH3OH           4.340-11
 *CN             3.5526-7
 CNN             2.981-13
 *CO             1.9493-1
 *CO2            1.0579-3
 COOH            3.8156-8
 *C2             8.238-13
 C2H             1.044-10
 C2H2,acetylene  8.6834-9
 C2H2,vinylidene 2.739-11
 CH2CO,ketene    1.2391-9
 O(CH)2O         1.177-13
 C2H3,vinyl      5.019-12
 CH3CN           5.144-12
 CH3CO,acetyl    1.226-12
 C2H4            7.761-12
 CH3CHO,ethanal  8.176-14
 CH3COOH         5.782-16
 C2H5            7.882-15
 C2H6            1.321-15
 CCN             5.077-15
 CNC             4.982-13
 OCCN            1.033-10
 C2N2            1.419-10
 C2O             8.271-10
 *C3             5.096-15
 C3H3,2-propynl  1.389-14
 C3H4,allene     3.198-16
 C3H4,propyne    6.808-16
 C3O2            2.408-12
 *H              2.5117-2
 HCN             5.0712-5
 HCO             5.3932-6
 HCCN            1.887-14
 HCCO            2.028-10
 HNC             8.8305-6
 HNCO            5.7627-7
 HNO             3.7068-8
 HNO2            3.174-11
 HO2             1.0742-9
 *H2             3.6436-1
 HCHO,formaldehy 4.2244-7
 HCOOH           1.5452-8
 H2O             1.4635-2
 H2O2            4.594-10
 *N              2.2994-6
 NCO             3.1408-8
 *NH             2.5712-6
 NH2             4.1324-6
 NH3             1.3690-5
 NH2OH           4.465-11
 *NO             3.4867-5
 NO2             7.978-11
 *N2             3.9466-1
 N2O             5.4553-9
 NCN             2.673-11
 N2H2            5.033-10
 N2H4            1.935-13
 N3              1.364-11
 N3H             1.545-11
 *O              1.4078-5
 *OH             3.6294-4
 *O2             2.2360-7
 O3              5.405-16

  * THERMODYNAMIC PROPERTIES FITTED TO 20000.K

