*******************************************************************************

         NASA-GLENN CHEMICAL EQUILIBRIUM PROGRAM CEA2, FEBRUARY 5, 2004
                   BY  BONNIE MCBRIDE AND SANFORD GORDON
      REFS: NASA RP-1311, PART I, 1994 AND NASA RP-1311, PART II, 1996

 *******************************************************************************



  
 ### CEA analysis performed on Mon 11-Jul-2022 13:03:41
  
 # Problem Type: "Assigned Temperature and Volume (or Density)"
  
 prob case=test___________5469 tv
  
 # Temperature (1 value):
 t,k= 3000
 # Density (1 value):
 rho,kg/m**3= 1.0511
  
 # Equivalence based on Fuel/Oxid. wt ratio (Eq 9.19*) (1 value):
 phi= 3.0
  
 # You selected the following fuels and oxidizers:
 reac
 fuel CH4              mole=100.0000  t,k= 300.000
 oxid Air              mole=100.0000  t,k= 300.000
  
 # You selected these options for output:
 # short version of output
 output short
 # Proportions of any products will be expressed as Mole Fractions.
 # Heat will be expressed as siunits
 output siunits
 # Trace variable:
 output trace=1e-16
  
 # Input prepared by this script:/var/www/sites/cearun.grc.nasa.gov/cgi-bin/CEARU
 N/prepareInputFile.cgi
  
 ### IMPORTANT:  The following line is the end of your CEA input file!
 end




               THERMODYNAMIC EQUILIBRIUM PROPERTIES AT ASSIGNED

                            TEMPERATURE AND VOLUME

 CASE = test___________

             REACTANT                       MOLES         ENERGY      TEMP
                                                         KJ/KG-MOL      K
 FUEL        CH4                        100.0000000    -77028.260    300.000
 OXIDANT     Air                        100.0000000     -2566.042    300.000

 O/F=    5.74617  %FUEL= 14.823217  R,EQ.RATIO= 2.996959  PHI,EQ.RATIO= 3.000000

 THERMODYNAMIC PROPERTIES

 P, BAR            13.532
 T, K             3000.00
 RHO, KG/CU M    1.0511 0
 H, KJ/KG         3298.66
 U, KJ/KG         2011.25
 G, KJ/KG        -33461.1
 S, KJ/(KG)(K)    12.2533

 M, (1/n)          19.375
 (dLV/dLP)t      -1.00626
 (dLV/dLT)p        1.1172
 Cp, KJ/(KG)(K)    2.9016
 GAMMAs            1.2171
 SON VEL,M/SEC     1251.7

 MOLE FRACTIONS

 *Ar             5.3357-3
 *C              4.238-10
 *CH             3.778-10
 CH2             2.2060-9
 CH3             1.3049-8
 CH2OH           1.199-10
 CH3O            2.835-11
 CH4             1.0688-8
 CH3OH           2.192-11
 *CN             7.1448-8
 CNN             6.160-14
 *CO             1.7484-1
 *CO2            4.3478-3
 COOH            1.3585-7
 *C2             2.956-14
 C2H             3.246-12
 C2H2,acetylene  2.339-10
 C2H2,vinylidene 7.377-13
 CH2CO,ketene    1.529-10
 O(CH)2O         6.654-14
 C2H3,vinyl      1.171-13
 CH3CN           1.233-13
 CH3CO,acetyl    1.310-13
 C2H4            1.569-13
 CH3CHO,ethanal  7.572-15
 CH3COOH         2.454-16
 C2H5            1.380-16
 CCN             1.872-16
 CNC             1.837-14
 OCCN            1.745-11
 C2N2            5.375-12
 C2O             1.360-10
 C3O2            3.327-13
 *H              2.3228-2
 HCN             8.8353-6
 HCO             4.1906-6
 HCCN            6.027-16
 HCCO            2.890-11
 HNC             1.5385-6
 HNCO            4.6007-7
 HNO             1.6140-7
 HNO2            6.332-10
 HNO3            1.240-15
 HO2             2.0860-8
 *H2             2.9191-1
 HCHO,formaldehy 2.8435-7
 HCOOH           4.7662-8
 H2O             5.3727-2
 H2O2            7.7280-9
 *N              2.5222-6
 NCO             2.8945-8
 *NH             2.4432-6
 NH2             3.4017-6
 NH3             9.7622-6
 NH2OH           1.459-10
 *NO             1.7525-4
 NO2             1.8374-9
 NO3             1.208-16
 *N2             4.4478-1
 N2O             2.8173-8
 NCN             5.524-12
 N2H2            4.257-10
 N2H4            1.228-13
 N3              1.579-11
 N3H             1.550-11
 *O              6.8866-5
 *OH             1.5381-3
 *O2             5.0123-6
 O3              5.552-14

  * THERMODYNAMIC PROPERTIES FITTED TO 20000.K



