*******************************************************************************

         NASA-GLENN CHEMICAL EQUILIBRIUM PROGRAM CEA2, FEBRUARY 5, 2004
                   BY  BONNIE MCBRIDE AND SANFORD GORDON
      REFS: NASA RP-1311, PART I, 1994 AND NASA RP-1311, PART II, 1996

 *******************************************************************************



  
 ### CEA analysis performed on Mon 11-Jul-2022 12:54:56
  
 # Problem Type: "Assigned Temperature and Volume (or Density)"
  
 prob case=test___________5469 tv
  
 # Temperature (1 value):
 t,k= 3000
 # Density (1 value):
 rho,kg/m**3= 1.0934
  
 # Equivalence based on Fuel/Oxid. wt ratio (Eq 9.19*) (1 value):
 phi= 1.8
  
 # You selected the following fuels and oxidizers:
 reac
 fuel CH4              mole=100.0000  t,k= 300.000
 oxid Air              mole=100.0000  t,k= 300.000
  
 # You selected these options for output:
 # short version of output
 output short
 # Proportions of any products will be expressed as Mole Fractions.
 # Heat will be expressed as siunits
 output siunits
 # Trace variable:
 output trace=1e-16
  
 # Input prepared by this script:/var/www/sites/cearun.grc.nasa.gov/cgi-bin/CEARU
 N/prepareInputFile.cgi
  
 ### IMPORTANT:  The following line is the end of your CEA input file!
 end




               THERMODYNAMIC EQUILIBRIUM PROPERTIES AT ASSIGNED

                            TEMPERATURE AND VOLUME

 CASE = test___________

             REACTANT                       MOLES         ENERGY      TEMP
                                                         KJ/KG-MOL      K
 FUEL        CH4                        100.0000000    -77028.260    300.000
 OXIDANT     Air                        100.0000000     -2566.042    300.000

 O/F=    9.57696  %FUEL=  9.454515  R,EQ.RATIO= 1.798784  PHI,EQ.RATIO= 1.800000

 THERMODYNAMIC PROPERTIES

 P, BAR            11.712
 T, K             3000.00
 RHO, KG/CU M    1.0934 0
 H, KJ/KG         2021.85
 U, KJ/KG          950.72
 G, KJ/KG        -30485.8
 S, KJ/(KG)(K)    10.8359

 M, (1/n)          23.287
 (dLV/dLP)t      -1.00665
 (dLV/dLT)p        1.1342
 Cp, KJ/(KG)(K)    2.7007
 GAMMAs            1.1953
 SON VEL,M/SEC     1131.5

 MOLE FRACTIONS

 *Ar             6.8173-3
 *C              4.627-11
 *CH             2.485-11
 CH2             8.746-11
 CH3             3.118-10
 CH2OH           1.786-11
 CH3O            4.223-12
 CH4             1.539-10
 CH3OH           1.968-12
 *CN             8.1983-9
 CNN             7.429-15
 *CO             1.1902-1
 *CO2            1.8454-2
 COOH            3.4748-7
 *C2             3.050-16
 C2H             2.018-14
 C2H2,acetylene  8.760-13
 C2H2,vinylidene 2.763-15
 CH2CO,ketene    3.572-12
 O(CH)2O         9.690-15
 HO(CO)2OH       2.695-16
 C2H3,vinyl      2.643-16
 CH3CN           2.926-16
 CH3CO,acetyl    1.844-15
 C2H4            2.134-16
 CNC             1.992-16
 OCCN            1.179-12
 C2N2            6.125-14
 C2O             8.748-12
 C3O2            1.261-14
 *H              1.6173-2
 HCN             6.1094-7
 HCO             1.7190-6
 HCCO            1.120-12
 HNC             1.0638-7
 HNCO            1.9836-7
 HNO             7.3653-7
 HNO2            1.8017-8
 HNO3            2.200-13
 HO2             5.6470-7
 *H2             1.2248-1
 HCHO,formaldehy 7.0291-8
 HCOOH           7.3464-8
 H2O             1.4056-1
 H2O2            1.2607-7
 *N              3.0630-6
 NCO             2.0709-8
 *NH             1.7881-6
 NH2             1.5002-6
 NH3             2.5945-6
 NH2OH           2.418-10
 *NO             1.3271-3
 NO2             8.6755-8
 NO3             3.557-14
 *N2             5.6775-1
 N2O             2.2423-7
 NCN             6.662-13
 N2H2            1.973-10
 NH2NO2          1.010-16
 N2H4            2.067-14
 N2O3            1.662-15
 N3              2.119-11
 N3H             1.253-11
 *O              4.9614-4
 *OH             6.6776-3
 *O2             2.2516-4
 O3              1.555-11

  * THERMODYNAMIC PROPERTIES FITTED TO 20000.K

