 *******************************************************************************

         NASA-GLENN CHEMICAL EQUILIBRIUM PROGRAM CEA2, FEBRUARY 5, 2004
                   BY  BONNIE MCBRIDE AND SANFORD GORDON
      REFS: NASA RP-1311, PART I, 1994 AND NASA RP-1311, PART II, 1996

 *******************************************************************************



  
 ### CEA analysis performed on Mon 11-Jul-2022 12:53:58
  
 # Problem Type: "Assigned Temperature and Volume (or Density)"
  
 prob case=test___________5469 tv
  
 # Temperature (1 value):
 t,k= 3000
 # Density (1 value):
 rho,kg/m**3= 1.1013
  
 # Equivalence based on Fuel/Oxid. wt ratio (Eq 9.19*) (1 value):
 phi= 1.6
  
 # You selected the following fuels and oxidizers:
 reac
 fuel CH4              mole=100.0000  t,k= 300.000
 oxid Air              mole=100.0000  t,k= 300.000
  
 # You selected these options for output:
 # short version of output
 output short
 # Proportions of any products will be expressed as Mole Fractions.
 # Heat will be expressed as siunits
 output siunits
 # Trace variable:
 output trace=1e-16
  
 # Input prepared by this script:/var/www/sites/cearun.grc.nasa.gov/cgi-bin/CEARU
 N/prepareInputFile.cgi
  
 ### IMPORTANT:  The following line is the end of your CEA input file!
 end




               THERMODYNAMIC EQUILIBRIUM PROPERTIES AT ASSIGNED

                            TEMPERATURE AND VOLUME

 CASE = test___________

             REACTANT                       MOLES         ENERGY      TEMP
                                                         KJ/KG-MOL      K
 FUEL        CH4                        100.0000000    -77028.260    300.000
 OXIDANT     Air                        100.0000000     -2566.042    300.000

 O/F=   10.77408  %FUEL=  8.493235  R,EQ.RATIO= 1.599088  PHI,EQ.RATIO= 1.600000

 THERMODYNAMIC PROPERTIES

 P, BAR            11.380
 T, K             3000.00
 RHO, KG/CU M    1.1013 0
 H, KJ/KG         1812.65
 U, KJ/KG          779.36
 G, KJ/KG        -29903.6
 S, KJ/(KG)(K)    10.5721

 M, (1/n)          24.140
 (dLV/dLP)t      -1.00729
 (dLV/dLT)p        1.1507
 Cp, KJ/(KG)(K)    2.7697
 GAMMAs            1.1868
 SON VEL,M/SEC     1107.4

 MOLE FRACTIONS

 *Ar             7.1420-3
 *C              2.666-11
 *CH             1.205-11
 CH2             3.568-11
 CH3             1.070-10
 CH2OH           9.273-12
 CH3O            2.193-12
 CH4             4.446-11
 CH3OH           8.600-13
 *CN             4.7642-9
 CNN             4.355-15
 *CO             1.0372-1
 *CO2            2.4325-2
 COOH            3.8544-7
 C2H             5.477-15
 C2H2,acetylene  2.001-13
 C2H2,vinylidene 6.312-16
 CH2CO,ketene    1.234-12
 O(CH)2O         5.063-15
 HO(CO)2OH       3.222-16
 CH3CO,acetyl    5.361-16
 OCCN            5.804-13
 C2N2            2.010-14
 C2O             4.268-12
 C3O2            5.208-15
 *H              1.4007-2
 HCN             2.9876-7
 HCO             1.2606-6
 HCCO            4.598-13
 HNC             5.2023-8
 HNCO            1.4672-7
 HNO             9.7316-7
 HNO2            3.6007-8
 HNO3            6.650-13
 HO2             1.1189-6
 *H2             8.9266-2
 HCHO,formaldehy 4.3378-8
 HCOOH           6.8573-8
 H2O             1.5495-1
 H2O2            2.1021-7
 *N              3.1796-6
 NCO             1.8203-8
 *NH             1.5619-6
 NH2             1.1028-6
 NH3             1.6049-6
 NH2OH           2.262-10
 *NO             2.0837-3
 NO2             2.0604-7
 NO3             1.278-13
 *N2             5.9444-1
 N2O             3.5511-7
 NCN             3.905-13
 N2H2            1.463-10
 NH2NO2          1.713-16
 N2H4            1.085-14
 N2O3            6.022-15
 N3              2.237-11
 N3H             1.114-11
 *O              7.7234-4
 *OH             8.7475-3
 *O2             5.3017-4
 O3              5.539-11

  * THERMODYNAMIC PROPERTIES FITTED TO 20000.K


