*******************************************************************************

         NASA-GLENN CHEMICAL EQUILIBRIUM PROGRAM CEA2, FEBRUARY 5, 2004
                   BY  BONNIE MCBRIDE AND SANFORD GORDON
      REFS: NASA RP-1311, PART I, 1994 AND NASA RP-1311, PART II, 1996

 *******************************************************************************



  
 ### CEA analysis performed on Mon 11-Jul-2022 12:23:06
  
 # Problem Type: "Assigned Temperature and Volume (or Density)"
  
 prob case=test___________5469 tv
  
 # Temperature (1 value):
 t,k= 3000
 # Density (1 value):
 rho,kg/m**3= 1.1360
  
 # Equivalence based on Fuel/Oxid. wt ratio (Eq 9.19*) (1 value):
 phi= 0.8
  
 # You selected the following fuels and oxidizers:
 reac
 fuel CH4              mole=100.0000  t,k= 300.000
 oxid Air              mole=100.0000  t,k= 300.000
  
 # You selected these options for output:
 # short version of output
 output short
 # Proportions of any products will be expressed as Mole Fractions.
 # Heat will be expressed as siunits
 output siunits
 # Trace variable:
 output trace=1e-16
  
 # Input prepared by this script:/var/www/sites/cearun.grc.nasa.gov/cgi-bin/CEARU
 N/prepareInputFile.cgi
  
 ### IMPORTANT:  The following line is the end of your CEA input file!
 end




               THERMODYNAMIC EQUILIBRIUM PROPERTIES AT ASSIGNED

                            TEMPERATURE AND VOLUME

 CASE = test___________

             REACTANT                       MOLES         ENERGY      TEMP
                                                         KJ/KG-MOL      K
 FUEL        CH4                        100.0000000    -77028.260    300.000
 OXIDANT     Air                        100.0000000     -2566.042    300.000

 O/F=   21.54815  %FUEL=  4.434953  R,EQ.RATIO= 0.800304  PHI,EQ.RATIO= 0.800000

 THERMODYNAMIC PROPERTIES

 P, BAR            10.449
 T, K             3000.00
 RHO, KG/CU M    1.1360 0
 H, KJ/KG         1915.22
 U, KJ/KG          995.45
 G, KJ/KG        -27084.7
 S, KJ/(KG)(K)     9.6666

 M, (1/n)          27.119
 (dLV/dLP)t      -1.01153
 (dLV/dLT)p        1.2474
 Cp, KJ/(KG)(K)    3.2069
 GAMMAs            1.1591
 SON VEL,M/SEC     1032.5

 MOLE FRACTIONS

 *Ar             8.3793-3
 *C              8.308-13
 *CH             1.147-13
 CH2             1.037-13
 CH3             9.499-14
 CH2OH           6.631-14
 CH3O            1.568-14
 CH4             1.205-14
 CH3OH           1.878-15
 *CN             1.532-10
 CNN             1.445-16
 *CO             2.6043-2
 *CO2            4.9213-2
 COOH            2.3814-7
 CH2CO,ketene    8.268-16
 HO(CO)2OH       1.129-16
 OCCN            4.302-15
 C2O             3.066-14
 *H              4.6587-3
 HCN             2.9335-9
 HCO             9.6663-8
 HCCO            1.009-15
 HNC             5.108-10
 HNCO            1.1608-8
 HNO             2.6908-6
 HNO2            8.0219-7
 HNO3            1.194-10
 HO2             2.4160-5
 *H2             9.0666-3
 HCHO,formaldehy 1.0158-9
 HCOOH           1.2938-8
 H2O             1.2681-1
 H2O2            1.3861-6
 *N              3.5729-6
 NCO             4.7159-9
 *NH             5.3600-7
 NH2             1.1557-7
 NH3             5.1362-8
 NH2OH           5.833-11
 *NO             1.8866-2
 NO2             1.5031-5
 NO3             7.511-11
 *N2             6.8921-1
 N2O             3.3174-6
 NCN             1.295-14
 N2H2            1.582-11
 NH2NO2          1.202-15
 N2H4            1.094-16
 N2O3            3.652-12
 N3              2.677-11
 N3H             4.069-12
 *O              6.7776-3
 *OH             2.3442-2
 *O2             3.7486-2
 O3              3.1556-8

  * THERMODYNAMIC PROPERTIES FITTED TO 20000.K


