*******************************************************************************

         NASA-GLENN CHEMICAL EQUILIBRIUM PROGRAM CEA2, FEBRUARY 5, 2004
                   BY  BONNIE MCBRIDE AND SANFORD GORDON
      REFS: NASA RP-1311, PART I, 1994 AND NASA RP-1311, PART II, 1996

 *******************************************************************************



  
 ### CEA analysis performed on Mon 11-Jul-2022 13:03:15
  
 # Problem Type: "Assigned Temperature and Volume (or Density)"
  
 prob case=test___________5469 tv
  
 # Temperature (1 value):
 t,k= 3000
 # Density (1 value):
 rho,kg/m**3= 1.0543
  
 # Equivalence based on Fuel/Oxid. wt ratio (Eq 9.19*) (1 value):
 phi= 2.9
  
 # You selected the following fuels and oxidizers:
 reac
 fuel CH4              mole=100.0000  t,k= 300.000
 oxid Air              mole=100.0000  t,k= 300.000
  
 # You selected these options for output:
 # short version of output
 output short
 # Proportions of any products will be expressed as Mole Fractions.
 # Heat will be expressed as siunits
 output siunits
 # Trace variable:
 output trace=1e-16
  
 # Input prepared by this script:/var/www/sites/cearun.grc.nasa.gov/cgi-bin/CEARU
 N/prepareInputFile.cgi
  
 ### IMPORTANT:  The following line is the end of your CEA input file!
 end




               THERMODYNAMIC EQUILIBRIUM PROPERTIES AT ASSIGNED

                            TEMPERATURE AND VOLUME

 CASE = test___________

             REACTANT                       MOLES         ENERGY      TEMP
                                                         KJ/KG-MOL      K
 FUEL        CH4                        100.0000000    -77028.260    300.000
 OXIDANT     Air                        100.0000000     -2566.042    300.000

 O/F=    5.94432  %FUEL= 14.400262  R,EQ.RATIO= 2.897111  PHI,EQ.RATIO= 2.900000

 THERMODYNAMIC PROPERTIES

 P, BAR            13.393
 T, K             3000.00
 RHO, KG/CU M    1.0543 0
 H, KJ/KG         3196.50
 U, KJ/KG         1926.19
 G, KJ/KG        -33240.1
 S, KJ/(KG)(K)    12.1455

 M, (1/n)          19.636
 (dLV/dLP)t      -1.00625
 (dLV/dLT)p        1.1174
 Cp, KJ/(KG)(K)    2.8750
 GAMMAs            1.2160
 SON VEL,M/SEC     1242.9

 MOLE FRACTIONS

 *Ar             5.4344-3
 *C              3.571-10
 *CH             3.102-10
 CH2             1.7652-9
 CH3             1.0177-8
 CH2OH           1.088-10
 CH3O            2.573-11
 CH4             8.1240-9
 CH3OH           1.940-11
 *CN             6.0433-8
 CNN             5.231-14
 *CO             1.7147-1
 *CO2            4.9634-3
 COOH            1.5115-7
 *C2             2.077-14
 C2H             2.222-12
 C2H2,acetylene  1.560-10
 C2H2,vinylidene 4.922-13
 CH2CO,ketene    1.188-10
 O(CH)2O         6.016-14
 C2H3,vinyl      7.614-14
 CH3CN           8.051-14
 CH3CO,acetyl    9.918-14
 C2H4            9.941-14
 CH3CHO,ethanal  5.586-15
 CH3COOH         2.108-16
 CCN             1.320-16
 CNC             1.296-14
 OCCN            1.432-11
 C2N2            3.806-12
 C2O             1.112-10
 C3O2            2.641-13
 *H              2.2874-2
 HCN             7.2833-6
 HCO             4.0052-6
 HCCN            4.143-16
 HCCO            2.303-11
 HNC             1.2682-6
 HNCO            4.4148-7
 HNO             1.8575-7
 HNO2            8.483-10
 HNO3            1.934-15
 HO2             2.7835-8
 *H2             2.8015-1
 HCHO,formaldehy 2.6487-7
 HCOOH           5.1681-8
 H2O             6.0022-2
 H2O2            1.0050-8
 *N              2.5585-6
 NCO             2.8499-8
 *NH             2.4155-6
 NH2             3.2776-6
 NH3             9.1674-6
 NH2OH           1.595-10
 *NO             2.0695-4
 NO2             2.5257-9
 NO3             1.933-16
 *N2             4.5300-1
 N2O             3.3401-8
 NCN             4.691-12
 N2H2            4.118-10
 N2H4            1.128-13
 N3              1.615-11
 N3H             1.545-11
 *O              8.0998-5
 *OH             1.7631-3
 *O2             6.8625-6
 O3              8.849-14

  * THERMODYNAMIC PROPERTIES FITTED TO 20000.K



