*******************************************************************************

         NASA-GLENN CHEMICAL EQUILIBRIUM PROGRAM CEA2, FEBRUARY 5, 2004
                   BY  BONNIE MCBRIDE AND SANFORD GORDON
      REFS: NASA RP-1311, PART I, 1994 AND NASA RP-1311, PART II, 1996

 *******************************************************************************



  
 ### CEA analysis performed on Mon 11-Jul-2022 12:50:56
  
 # Problem Type: "Assigned Temperature and Volume (or Density)"
  
 prob case=test___________5469 tv
  
 # Temperature (1 value):
 t,k= 3000
 # Density (1 value):
 rho,kg/m**3= 1.1224
  
 # Equivalence based on Fuel/Oxid. wt ratio (Eq 9.19*) (1 value):
 phi= 1.1
  
 # You selected the following fuels and oxidizers:
 reac
 fuel CH4              mole=100.0000  t,k= 300.000
 oxid Air              mole=100.0000  t,k= 300.000
  
 # You selected these options for output:
 # short version of output
 output short
 # Proportions of any products will be expressed as Mole Fractions.
 # Heat will be expressed as siunits
 output siunits
 # Trace variable:
 output trace=1e-16
  
 # Input prepared by this script:/var/www/sites/cearun.grc.nasa.gov/cgi-bin/CEARU
 N/prepareInputFile.cgi
  
 ### IMPORTANT:  The following line is the end of your CEA input file!
 end




               THERMODYNAMIC EQUILIBRIUM PROPERTIES AT ASSIGNED

                            TEMPERATURE AND VOLUME

 CASE = test___________

             REACTANT                       MOLES         ENERGY      TEMP
                                                         KJ/KG-MOL      K
 FUEL        CH4                        100.0000000    -77028.260    300.000
 OXIDANT     Air                        100.0000000     -2566.042    300.000

 O/F=   15.67138  %FUEL=  5.998302  R,EQ.RATIO= 1.099848  PHI,EQ.RATIO= 1.100000

 THERMODYNAMIC PROPERTIES

 P, BAR            10.647
 T, K             3000.00
 RHO, KG/CU M    1.1224 0
 H, KJ/KG         1560.30
 U, KJ/KG          611.69
 G, KJ/KG        -28255.4
 S, KJ/(KG)(K)     9.9386

 M, (1/n)          26.295
 (dLV/dLP)t      -1.01251
 (dLV/dLT)p        1.2702
 Cp, KJ/(KG)(K)    3.4593
 GAMMAs            1.1560
 SON VEL,M/SEC     1047.2

 MOLE FRACTIONS

 *Ar             7.9916-3
 *C              3.166-12
 *CH             6.979-13
 CH2             1.008-12
 CH3             1.474-12
 CH2OH           5.220-13
 CH3O            1.234-13
 CH4             2.987-13
 CH3OH           2.361-14
 *CN             5.774-10
 CNN             5.386-16
 *CO             5.0340-2
 *CO2            4.8248-2
 COOH            3.7284-7
 C2H2,acetylene  6.280-16
 CH2CO,ketene    1.583-14
 O(CH)2O         2.654-16
 HO(CO)2OH       2.821-16
 OCCN            3.194-14
 C2N2            2.762-16
 C2O             2.302-13
 C3O2            1.276-16
 *H              7.3010-3
 HCN             1.7659-8
 HCO             2.9838-7
 HCCO            1.209-14
 HNC             3.0749-9
 HNCO            3.5441-8
 HNO             2.1155-6
 HNO2            3.1988-7
 HNO3            2.414-11
 HO2             9.7404-6
 *H2             2.2691-2
 HCHO,formaldehy 5.0072-9
 HCOOH           3.2349-8
 H2O             1.6097-1
 H2O2            8.9240-7
 *N              3.4680-6
 NCO             9.0162-9
 *NH             8.3083-7
 NH2             2.8607-7
 NH3             2.0304-7
 NH2OH           1.169-10
 *NO             9.2879-3
 NO2             3.7533-6
 NO3             9.513-12
 *N2             6.6168-1
 N2O             1.6154-6
 NCN             4.830-14
 N2H2            3.873-11
 NH2NO2          7.574-16
 N2H4            6.834-16
 N2O3            4.575-13
 N3              2.542-11
 N3H             6.170-12
 *O              3.3735-3
 *OH             1.8633-2
 *O2             9.4636-3
 O3              4.0405-9

  * THERMODYNAMIC PROPERTIES FITTED TO 20000.K



