*******************************************************************************

         NASA-GLENN CHEMICAL EQUILIBRIUM PROGRAM CEA2, FEBRUARY 5, 2004
                   BY  BONNIE MCBRIDE AND SANFORD GORDON
      REFS: NASA RP-1311, PART I, 1994 AND NASA RP-1311, PART II, 1996

 *******************************************************************************



  
 ### CEA analysis performed on Mon 11-Jul-2022 13:01:28
  
 # Problem Type: "Assigned Temperature and Volume (or Density)"
  
 prob case=test___________5469 tv
  
 # Temperature (1 value):
 t,k= 3000
 # Density (1 value):
 rho,kg/m**3= 1.0677
  
 # Equivalence based on Fuel/Oxid. wt ratio (Eq 9.19*) (1 value):
 phi= 2.5
  
 # You selected the following fuels and oxidizers:
 reac
 fuel CH4              mole=100.0000  t,k= 300.000
 oxid Air              mole=100.0000  t,k= 300.000
  
 # You selected these options for output:
 # short version of output
 output short
 # Proportions of any products will be expressed as Mole Fractions.
 # Heat will be expressed as siunits
 output siunits
 # Trace variable:
 output trace=1e-16
  
 # Input prepared by this script:/var/www/sites/cearun.grc.nasa.gov/cgi-bin/CEARU
 N/prepareInputFile.cgi
  
 ### IMPORTANT:  The following line is the end of your CEA input file!
 end




               THERMODYNAMIC EQUILIBRIUM PROPERTIES AT ASSIGNED

                            TEMPERATURE AND VOLUME

 CASE = test___________

             REACTANT                       MOLES         ENERGY      TEMP
                                                         KJ/KG-MOL      K
 FUEL        CH4                        100.0000000    -77028.260    300.000
 OXIDANT     Air                        100.0000000     -2566.042    300.000

 O/F=    6.89541  %FUEL= 12.665589  R,EQ.RATIO= 2.497719  PHI,EQ.RATIO= 2.500000

 THERMODYNAMIC PROPERTIES

 P, BAR            12.814
 T, K             3000.00
 RHO, KG/CU M    1.0677 0
 H, KJ/KG         2778.52
 U, KJ/KG         1578.33
 G, KJ/KG        -32311.3
 S, KJ/(KG)(K)    11.6966

 M, (1/n)          20.783
 (dLV/dLP)t      -1.00622
 (dLV/dLT)p        1.1188
 Cp, KJ/(KG)(K)    2.7751
 GAMMAs            1.2110
 SON VEL,M/SEC     1205.6

 MOLE FRACTIONS

 *Ar             5.8685-3
 *C              1.832-10
 *CH             1.407-10
 CH2             7.083-10
 CH3             3.6110-9
 CH2OH           6.858-11
 CH3O            1.622-11
 CH4             2.5492-9
 CH3OH           1.081-11
 *CN             3.1512-8
 CNN             2.772-14
 *CO             1.5624-1
 *CO2            8.0330-3
 COOH            2.1634-7
 *C2             5.230-15
 C2H             4.950-13
 C2H2,acetylene  3.073-11
 C2H2,vinylidene 9.694-14
 CH2CO,ketene    4.155-11
 O(CH)2O         3.738-14
 HO(CO)2OH       1.143-16
 C2H3,vinyl      1.326-14
 CH3CN           1.425-14
 CH3CO,acetyl    3.068-14
 C2H4            1.531-14
 CH3CHO,ethanal  1.528-15
 CH3COOH         1.024-16
 CNC             3.316-15
 OCCN            6.512-12
 C2N2            9.901-13
 C2O             4.975-11
 C3O2            1.030-13
 *H              2.1141-2
 HCN             3.3586-6
 HCO             3.2276-6
 HCCO            9.109-12
 HNC             5.8483-7
 HNCO            3.6159-7
 HNO             3.0994-7
 HNO2            2.5140-9
 HNO3            1.018-14
 HO2             8.1162-8
 *H2             2.2899-1
 HCHO,formaldehy 1.8876-7
 HCOOH           6.5416-8
 H2O             8.7140-2
 H2O2            2.5915-8
 *N              2.7179-6
 NCO             2.6395-8
 *NH             2.2692-6
 NH2             2.7230-6
 NH3             6.7354-6
 NH2OH           2.081-10
 *NO             3.9046-4
 NO2             8.4641-9
 NO3             1.151-15
 *N2             4.8910-1
 N2O             6.4053-8
 NCN             2.486-12
 N2H2            3.477-10
 N2H4            7.452-14
 N3              1.772-11
 N3H             1.499-11
 *O              1.5036-4
 *OH             2.8943-3
 *O2             2.2627-5
 O3              5.182-13

  * THERMODYNAMIC PROPERTIES FITTED TO 20000.K



