*******************************************************************************

         NASA-GLENN CHEMICAL EQUILIBRIUM PROGRAM CEA2, FEBRUARY 5, 2004
                   BY  BONNIE MCBRIDE AND SANFORD GORDON
      REFS: NASA RP-1311, PART I, 1994 AND NASA RP-1311, PART II, 1996

 *******************************************************************************



  
 ### CEA analysis performed on Mon 11-Jul-2022 13:00:09
  
 # Problem Type: "Assigned Temperature and Volume (or Density)"
  
 prob case=test___________5469 tv
  
 # Temperature (1 value):
 t,k= 3000
 # Density (1 value):
 rho,kg/m**3= 1.0783
  
 # Equivalence based on Fuel/Oxid. wt ratio (Eq 9.19*) (1 value):
 phi= 2.2
  
 # You selected the following fuels and oxidizers:
 reac
 fuel CH4              mole=100.0000  t,k= 300.000
 oxid Air              mole=100.0000  t,k= 300.000
  
 # You selected these options for output:
 # short version of output
 output short
 # Proportions of any products will be expressed as Mole Fractions.
 # Heat will be expressed as siunits
 output siunits
 # Trace variable:
 output trace=1e-16
  
 # Input prepared by this script:/var/www/sites/cearun.grc.nasa.gov/cgi-bin/CEARU
 N/prepareInputFile.cgi
  
 ### IMPORTANT:  The following line is the end of your CEA input file!
 end




               THERMODYNAMIC EQUILIBRIUM PROPERTIES AT ASSIGNED

                            TEMPERATURE AND VOLUME

 CASE = test___________

             REACTANT                       MOLES         ENERGY      TEMP
                                                         KJ/KG-MOL      K
 FUEL        CH4                        100.0000000    -77028.260    300.000
 OXIDANT     Air                        100.0000000     -2566.042    300.000

 O/F=    7.83569  %FUEL= 11.317733  R,EQ.RATIO= 2.198175  PHI,EQ.RATIO= 2.200000

 THERMODYNAMIC PROPERTIES

 P, BAR            12.355
 T, K             3000.00
 RHO, KG/CU M    1.0783 0
 H, KJ/KG         2456.22
 U, KJ/KG         1310.42
 G, KJ/KG        -31563.8
 S, KJ/(KG)(K)    11.3400

 M, (1/n)          21.770
 (dLV/dLP)t      -1.00626
 (dLV/dLT)p        1.1218
 Cp, KJ/(KG)(K)    2.7156
 GAMMAs            1.2059
 SON VEL,M/SEC     1175.5

 MOLE FRACTIONS

 *Ar             6.2419-3
 *C              1.080-10
 *CH             7.341-11
 CH2             3.269-10
 CH3             1.4747-9
 CH2OH           4.332-11
 CH3O            1.024-11
 CH4             9.212-10
 CH3OH           6.042-12
 *CN             1.8810-8
 CNN             1.676-14
 *CO             1.4246-1
 *CO2            1.1329-2
 COOH            2.6996-7
 *C2             1.752-15
 C2H             1.467-13
 C2H2,acetylene  8.062-12
 C2H2,vinylidene 2.543-14
 CH2CO,ketene    1.686-11
 O(CH)2O         2.346-14
 HO(CO)2OH       1.716-16
 C2H3,vinyl      3.078-15
 CH3CN           3.350-15
 CH3CO,acetyl    1.102-14
 C2H4            3.145-15
 CH3CHO,ethanal  4.855-16
 CNC             1.125-15
 OCCN            3.417-12
 C2N2            3.401-13
 C2O             2.578-11
 C3O2            4.692-14
 *H              1.9402-2
 HCN             1.7739-6
 HCO             2.6039-6
 HCCO            4.177-12
 HNC             3.0889-7
 HNCO            2.9539-7
 HNO             4.4548-7
 HNO2            5.5889-9
 HNO3            3.500-14
 HO2             1.7819-7
 *H2             1.8595-1
 HCHO,formaldehy 1.3475-7
 HCOOH           7.2229-8
 H2O             1.0945-1
 H2O2            5.0344-8
 *N              2.8543-6
 NCO             2.4369-8
 *NH             2.1087-6
 NH2             2.2390-6
 NH3             4.9003-6
 NH2OH           2.342-10
 *NO             6.3425-4
 NO2             2.1266-8
 NO3             4.472-15
 *N2             5.2012-1
 N2O             1.0535-7
 NCN             1.503-12
 N2H2            2.895-10
 N2H4            4.857-14
 N2O3            2.054-16
 N3              1.908-11
 N3H             1.428-11
 *O              2.4121-4
 *OH             4.1084-3
 *O2             5.6142-5
 O3              1.989-12

  * THERMODYNAMIC PROPERTIES FITTED TO 20000.K

