*******************************************************************************

         NASA-GLENN CHEMICAL EQUILIBRIUM PROGRAM CEA2, FEBRUARY 5, 2004
                   BY  BONNIE MCBRIDE AND SANFORD GORDON
      REFS: NASA RP-1311, PART I, 1994 AND NASA RP-1311, PART II, 1996

 *******************************************************************************



  
 ### CEA analysis performed on Mon 11-Jul-2022 13:06:46
  
 # Problem Type: "Assigned Temperature and Volume (or Density)"
  
 prob case=test___________5469 tv
  
 # Temperature (1 value):
 t,k= 3000
 # Density (1 value):
 rho,kg/m**3= 1.0272
  
 # Equivalence based on Fuel/Oxid. wt ratio (Eq 9.19*) (1 value):
 phi= 3.8
  
 # You selected the following fuels and oxidizers:
 reac
 fuel CH4              mole=100.0000  t,k= 300.000
 oxid Air              mole=100.0000  t,k= 300.000
  
 # You selected these options for output:
 # short version of output
 output short
 # Proportions of any products will be expressed as Mole Fractions.
 # Heat will be expressed as siunits
 output siunits
 # Trace variable:
 output trace=1e-16
  
 # Input prepared by this script:/var/www/sites/cearun.grc.nasa.gov/cgi-bin/CEARU
 N/prepareInputFile.cgi
  
 ### IMPORTANT:  The following line is the end of your CEA input file!
 end




               THERMODYNAMIC EQUILIBRIUM PROPERTIES AT ASSIGNED

                            TEMPERATURE AND VOLUME

 CASE = test___________

             REACTANT                       MOLES         ENERGY      TEMP
                                                         KJ/KG-MOL      K
 FUEL        CH4                        100.0000000    -77028.260    300.000
 OXIDANT     Air                        100.0000000     -2566.042    300.000

 O/F=    4.53645  %FUEL= 18.062105  R,EQ.RATIO= 3.795743  PHI,EQ.RATIO= 3.800000

 THERMODYNAMIC PROPERTIES

 P, BAR            14.569
 T, K             3000.00
 RHO, KG/CU M    1.0272 0
 H, KJ/KG         4081.95
 U, KJ/KG         2663.64
 G, KJ/KG        -35076.3
 S, KJ/(KG)(K)    13.0527

 M, (1/n)          17.587
 (dLV/dLP)t      -1.00646
 (dLV/dLT)p        1.1171
 Cp, KJ/(KG)(K)    3.1181
 GAMMAs            1.2236
 SON VEL,M/SEC     1317.4

 MOLE FRACTIONS

 *Ar             4.6591-3
 *C              3.3856-9
 *CH             3.5417-9
 CH2             2.4270-8
 CH3             1.6849-7
 CH2OH           2.187-10
 CH3O            5.172-11
 CH4             1.6197-7
 CH3OH           4.695-11
 *CN             5.5338-7
 CNN             4.626-13
 *CO             1.9737-1
 *CO2            6.9360-4
 COOH            2.5435-8
 *C2             2.031-12
 C2H             2.617-10
 C2H2,acetylene  2.2129-8
 C2H2,vinylidene 6.980-11
 CH2CO,ketene    2.0448-9
 O(CH)2O         1.257-13
 C2H3,vinyl      1.300-11
 CH3CN           1.328-11
 CH3CO,acetyl    2.056-12
 C2H4            2.044-11
 C2H4O,ethylen-o 1.134-16
 CH3CHO,ethanal  1.395-13
 CH3COOH         6.387-16
 C2H5            2.111-14
 C2H6            3.597-15
 CCN             1.247-14
 CNC             1.224-12
 OCCN            1.642-10
 C2N2            3.471-10
 C2O             1.3205-9
 *C3             1.981-14
 C3H3,2-propynl  5.675-14
 C3H4,allene     1.328-15
 C3H4,propyne    2.828-15
 C3O2            3.926-12
 C4H2,butadiyne  5.439-16
 *H              2.5321-2
 HCN             8.0311-5
 HCO             5.5518-6
 HCCN            4.711-14
 HCCO            3.292-10
 HNC             1.3985-5
 HNCO            5.9099-7
 HNO             2.4108-8
 HNO2            1.337-11
 HO2             4.541-10
 *H2             3.7345-1
 HCHO,formaldehy 4.4212-7
 HCOOH           1.0473-8
 H2O             9.7133-3
 H2O2            1.974-10
 *N              2.2715-6
 NCO             3.1682-8
 *NH             2.5824-6
 NH2             4.2195-6
 NH3             1.4212-5
 NH2OH           3.001-11
 *NO             2.2305-5
 NO2             3.305-11
 *N2             3.8840-1
 N2O             3.4767-9
 NCN             4.148-11
 N2H2            5.120-10
 N2H4            2.034-13
 N3              1.337-11
 N3H             1.540-11
 *O              9.0395-6
 *OH             2.3694-4
 *O2             9.2977-8
 O3              1.455-16

  * THERMODYNAMIC PROPERTIES FITTED TO 20000.K


