 *******************************************************************************

         NASA-GLENN CHEMICAL EQUILIBRIUM PROGRAM CEA2, FEBRUARY 5, 2004
                   BY  BONNIE MCBRIDE AND SANFORD GORDON
      REFS: NASA RP-1311, PART I, 1994 AND NASA RP-1311, PART II, 1996

 *******************************************************************************



  
 ### CEA analysis performed on Mon 11-Jul-2022 12:56:49
  
 # Problem Type: "Assigned Temperature and Volume (or Density)"
  
 prob case=test___________5469 tv
  
 # Temperature (1 value):
 t,k= 3000
 # Density (1 value):
 rho,kg/m**3= 1.0895
  
 # Equivalence based on Fuel/Oxid. wt ratio (Eq 9.19*) (1 value):
 phi= 1.9
  
 # You selected the following fuels and oxidizers:
 reac
 fuel CH4              mole=100.0000  t,k= 300.000
 oxid Air              mole=100.0000  t,k= 300.000
  
 # You selected these options for output:
 # short version of output
 output short
 # Proportions of any products will be expressed as Mole Fractions.
 # Heat will be expressed as siunits
 output siunits
 # Trace variable:
 output trace=1e-16
  
 # Input prepared by this script:/var/www/sites/cearun.grc.nasa.gov/cgi-bin/CEARU
 N/prepareInputFile.cgi
  
 ### IMPORTANT:  The following line is the end of your CEA input file!
 end




               THERMODYNAMIC EQUILIBRIUM PROPERTIES AT ASSIGNED

                            TEMPERATURE AND VOLUME

 CASE = test___________

             REACTANT                       MOLES         ENERGY      TEMP
                                                         KJ/KG-MOL      K
 FUEL        CH4                        100.0000000    -77028.260    300.000
 OXIDANT     Air                        100.0000000     -2566.042    300.000

 O/F=    9.07291  %FUEL=  9.927621  R,EQ.RATIO= 1.898632  PHI,EQ.RATIO= 1.900000

 THERMODYNAMIC PROPERTIES

 P, BAR            11.875
 T, K             3000.00
 RHO, KG/CU M    1.0895 0
 H, KJ/KG         2129.90
 U, KJ/KG         1039.91
 G, KJ/KG        -30765.2
 S, KJ/(KG)(K)    10.9650

 M, (1/n)          22.884
 (dLV/dLP)t      -1.00649
 (dLV/dLT)p        1.1294
 Cp, KJ/(KG)(K)    2.6919
 GAMMAs            1.1986
 SON VEL,M/SEC     1143.0

 MOLE FRACTIONS

 *Ar             6.6644-3
 *C              5.860-11
 *CH             3.375-11
 CH2             1.274-10
 CH3             4.868-10
 CH2OH           2.324-11
 CH3O            5.495-12
 CH4             2.577-10
 CH3OH           2.746-12
 *CN             1.0338-8
 CNN             9.329-15
 *CO             1.2561-1
 *CO2            1.6230-2
 COOH            3.2770-7
 *C2             4.960-16
 C2H             3.519-14
 C2H2,acetylene  1.638-12
 C2H2,vinylidene 5.168-15
 CH2CO,ketene    5.566-12
 O(CH)2O         1.258-14
 HO(CO)2OH       2.431-16
 C2H3,vinyl      5.300-16
 CH3CN           5.842-16
 CH3CO,acetyl    3.082-15
 C2H4            4.588-16
 CH3CHO,ethanal  1.151-16
 CNC             3.225-16
 OCCN            1.592-12
 C2N2            9.876-14
 C2O             1.186-11
 C3O2            1.829-14
 *H              1.7104-2
 HCN             8.2612-7
 HCO             1.9454-6
 HCCO            1.628-12
 HNC             1.4385-7
 HNCO            2.2352-7
 HNO             6.4629-7
 HNO2            1.3174-8
 HNO3            1.340-13
 HO2             4.1471-7
 *H2             1.3890-1
 HCHO,formaldehy 8.5301-8
 HCOOH           7.4292-8
 H2O             1.3283-1
 H2O2            9.9277-8
 *N              3.0078-6
 NCO             2.1763-8
 *NH             1.8828-6
 NH2             1.6939-6
 NH3             3.1413-6
 NH2OH           2.439-10
 *NO             1.0859-3
 NO2             5.9160-8
 NO3             2.021-14
 *N2             5.5512-1
 N2O             1.8270-7
 NCN             8.365-13
 N2H2            2.218-10
 N2H4            2.672-14
 N2O3            9.404-16
 N3              2.063-11
 N3H             1.308-11
 *O              4.0775-4
 *OH             5.8847-3
 *O2             1.5420-4
 O3              8.876-12

  * THERMODYNAMIC PROPERTIES FITTED TO 20000.K


