

         NASA-GLENN CHEMICAL EQUILIBRIUM PROGRAM CEA2, FEBRUARY 5, 2004
                   BY  BONNIE MCBRIDE AND SANFORD GORDON
      REFS: NASA RP-1311, PART I, 1994 AND NASA RP-1311, PART II, 1996

 *******************************************************************************

  
 ### CEA analysis performed on Thu 06-Jun-2024 13:51:48
  
 # Problem Type: "Assigned Temperature and Volume (or Density)"
  
 prob case=test___________8300 tv
  
 # Temperature (1 value):
 t,k= 3000
 # Density (1 value):
 rho,kg/m**3= 1
  
 # Equivalence based on Fuel/Oxid. wt ratio (Eq 9.19*) (10 values):
 phi= 3.1, 3.2, 3.3, 3.4, 3.5, 3.6, 3.7, 3.8, 3.9, 4
  
 # You selected the following fuels and oxidizers:
 reac
 fuel CH4              mole=100.0000
 oxid Air              mole=100.0000
  
 # You selected these options for output:
 # short version of output
 output short
 # Proportions of any products will be expressed as Mole Fractions.
 # Heat will be expressed as siunits
 output siunits
 # Trace variable:
 output trace=1e-16
  
 # Input prepared by this script:/var/www/sites/cearun.grc.nasa.gov/cgi-bin/CEARU
 N/prepareInputFile.cgi
  
 ### IMPORTANT:  The following line is the end of your CEA input file!
 end

               THERMODYNAMIC EQUILIBRIUM PROPERTIES AT ASSIGNED

                            TEMPERATURE AND VOLUME

 CASE = test___________

             REACTANT                       MOLES         ENERGY      TEMP
                                                         KJ/KG-MOL      K
 FUEL        CH4                        100.0000000         0.000      0.000
 OXIDANT     Air                        100.0000000         0.000      0.000

 O/F=    5.56081  %FUEL= 15.242012  R,EQ.RATIO= 3.096807  PHI,EQ.RATIO= 3.100000

 THERMODYNAMIC PROPERTIES

 P, BAR            13.047
 T, K             3000.00
 RHO, KG/CU M    1.0000 0
 H, KJ/KG         3407.05
 U, KJ/KG         2102.32
 G, KJ/KG        -33738.7
 S, KJ/(KG)(K)    12.3819

 M, (1/n)          19.118
 (dLV/dLP)t      -1.00642
 (dLV/dLT)p        1.1198
 Cp, KJ/(KG)(K)    2.9508
 GAMMAs            1.2171
 SON VEL,M/SEC     1260.2

 MOLE FRACTIONS

 *Ar             5.2390-3
 *C              5.059-10
 *CH             4.511-10
 CH2             2.6346-9
 CH3             1.5590-8
 CH2OH           1.222-10
 CH3O            2.889-11
 CH4             1.2774-8
 CH3OH           2.235-11
 *CN             8.2973-8
 CNN             6.961-14
 *CO             1.7802-1
 *CO2            3.7765-3
 COOH            1.1804-7
 *C2             4.061-14
 C2H             4.460-12
 C2H2,acetylene  3.214-10
 C2H2,vinylidene 1.014-12
 CH2CO,ketene    1.793-10
 O(CH)2O         6.655-14
 C2H3,vinyl      1.610-13
 CH3CN           1.650-13
 CH3CO,acetyl    1.537-13
 C2H4            2.157-13
 CH3CHO,ethanal  8.884-15
 CH3COOH         2.456-16
 C2H5            1.899-16
 CCN             2.502-16
 CNC             2.455-14
 OCCN            1.989-11
 C2N2            6.989-12
 C2O             1.594-10
 C3O2            3.828-13
 *H              2.4099-2
 HCN             1.0264-5
 HCO             4.2682-6
 HCCN            8.057-16
 HCCO            3.387-11
 HNC             1.7872-6
 HNCO            4.5594-7
 HNO             1.3900-7
 HNO2            4.652-10
 HNO3            7.771-16
 HO2             1.5750-8
 *H2             3.0295-1
 HCHO,formaldehy 2.8971-7
 HCOOH           4.1426-8
 H2O             4.7567-2
 H2O2            5.8368-9
 *N              2.5452-6
 NCO             2.8676-8
 *NH             2.4664-6
 NH2             3.4350-6
 NH3             9.8611-6
 NH2OH           1.257-10
 *NO             1.5087-4
 NO2             1.3494-9
 *N2             4.3673-1
 N2O             2.3599-8
 NCN             6.242-12
 N2H2            4.182-10
 N2H4            1.207-13
 N3              1.509-11
 N3H             1.481-11
 *O              6.0931-5
 *OH             1.3613-3
 *O2             3.7832-6
 O3              3.575-14

  * THERMODYNAMIC PROPERTIES FITTED TO 20000.K

               THERMODYNAMIC EQUILIBRIUM PROPERTIES AT ASSIGNED

                            TEMPERATURE AND VOLUME

 CASE = test___________

             REACTANT                       MOLES         ENERGY      TEMP
                                                         KJ/KG-MOL      K
 FUEL        CH4                        100.0000000         0.000      0.000
 OXIDANT     Air                        100.0000000         0.000      0.000

 O/F=    5.38704  %FUEL= 15.656709  R,EQ.RATIO= 3.196655  PHI,EQ.RATIO= 3.200000

 THERMODYNAMIC PROPERTIES

 P, BAR            13.215
 T, K             3000.00
 RHO, KG/CU M    1.0000 0
 H, KJ/KG         3506.93
 U, KJ/KG         2185.45
 G, KJ/KG        -33948.2
 S, KJ/(KG)(K)    12.4851

 M, (1/n)          18.875
 (dLV/dLP)t      -1.00643
 (dLV/dLT)p        1.1196
 Cp, KJ/(KG)(K)    2.9765
 GAMMAs            1.2181
 SON VEL,M/SEC     1268.8

 MOLE FRACTIONS

 *Ar             5.1473-3
 *C              6.091-10
 *CH             5.565-10
 CH2             3.3302-9
 CH3             2.0189-8
 CH2OH           1.337-10
 CH3O            3.161-11
 CH4             1.6948-8
 CH3OH           2.506-11
 *CN             9.9671-8
 CNN             8.341-14
 *CO             1.8112-1
 *CO2            3.2464-3
 COOH            1.0396-7
 *C2             5.964-14
 C2H             6.712-12
 C2H2,acetylene  4.955-10
 C2H2,vinylidene 1.563-12
 CH2CO,ketene    2.335-10
 O(CH)2O         7.324-14
 C2H3,vinyl      2.543-13
 CH3CN           2.599-13
 CH3CO,acetyl    2.051-13
 C2H4            3.491-13
 CH3CHO,ethanal  1.215-14
 CH3COOH         2.838-16
 C2H5            3.148-16
 CCN             3.666-16
 CNC             3.597-14
 OCCN            2.462-11
 C2N2            1.021-11
 C2O             1.978-10
 C3H3,2-propynl  1.811-16
 C3O2            4.894-13
 *H              2.4378-2
 HCN             1.2632-5
 HCO             4.4491-6
 HCCN            1.209-15
 HCCO            4.306-11
 HNC             2.1996-6
 HNCO            4.7411-7
 HNO             1.1851-7
 HNO2            3.351-10
 HNO3            4.730-16
 HO2             1.1374-8
 *H2             3.1398-1
 HCHO,formaldehy 3.0941-7
 HCOOH           3.7381-8
 H2O             4.1652-2
 H2O2            4.3183-9
 *N              2.5068-6
 NCO             2.9104-8
 *NH             2.4888-6
 NH2             3.5513-6
 NH3             1.0445-5
 NH2OH           1.125-10
 *NO             1.2555-4
 NO2             9.488-10
 *N2             4.2909-1
 N2O             1.9590-8
 NCN             7.479-12
 N2H2            4.313-10
 N2H4            1.307-13
 N3              1.479-11
 N3H             1.488-11
 *O              5.0829-5
 *OH             1.1635-3
 *O2             2.6665-6
 O3              2.129-14

  * THERMODYNAMIC PROPERTIES FITTED TO 20000.K

               THERMODYNAMIC EQUILIBRIUM PROPERTIES AT ASSIGNED

                            TEMPERATURE AND VOLUME

 CASE = test___________

             REACTANT                       MOLES         ENERGY      TEMP
                                                         KJ/KG-MOL      K
 FUEL        CH4                        100.0000000         0.000      0.000
 OXIDANT     Air                        100.0000000         0.000      0.000

 O/F=    5.22379  %FUEL= 16.067368  R,EQ.RATIO= 3.296503  PHI,EQ.RATIO= 3.300000

 THERMODYNAMIC PROPERTIES

 P, BAR            13.381
 T, K             3000.00
 RHO, KG/CU M    1.0000 0
 H, KJ/KG         3605.85
 U, KJ/KG         2267.78
 G, KJ/KG        -34153.5
 S, KJ/(KG)(K)    12.5865

 M, (1/n)          18.641
 (dLV/dLP)t      -1.00644
 (dLV/dLT)p        1.1194
 Cp, KJ/(KG)(K)    3.0024
 GAMMAs            1.2191
 SON VEL,M/SEC     1277.2

 MOLE FRACTIONS

 *Ar             5.0587-3
 *C              7.425-10
 *CH             6.941-10
 CH2             4.2499-9
 CH3             2.6364-8
 CH2OH           1.456-10
 CH3O            3.442-11
 CH4             2.2645-8
 CH3OH           2.792-11
 *CN             1.2120-7
 CNN             1.012-13
 *CO             1.8410-1
 *CO2            2.7516-3
 COOH            9.0162-8
 *C2             8.972-14
 C2H             1.033-11
 C2H2,acetylene  7.805-10
 C2H2,vinylidene 2.462-12
 CH2CO,ketene    3.068-10
 O(CH)2O         8.022-14
 C2H3,vinyl      4.098-13
 CH3CN           4.179-13
 CH3CO,acetyl    2.756-13
 C2H4            5.757-13
 CH3CHO,ethanal  1.670-14
 CH3COOH         3.254-16
 C2H5            5.312-16
 CCN             5.501-16
 CNC             5.398-14
 OCCN            3.081-11
 C2N2            1.529-11
 C2O             2.481-10
 *C3             1.763-16
 C3H3,2-propynl  3.603-16
 C3O2            6.319-13
 *H              2.4634-2
 HCN             1.5717-5
 HCO             4.6272-6
 HCCN            1.857-15
 HCCO            5.527-11
 HNC             2.7367-6
 HNCO            4.9189-7
 HNO             9.9618-8
 HNO2            2.349-10
 HNO3            2.765-16
 HO2             7.9920-9
 *H2             3.2465-1
 HCHO,formaldehy 3.2927-7
 HCOOH           3.3172-8
 H2O             3.5914-2
 H2O2            3.1049-9
 *N              2.4697-6
 NCO             2.9510-8
 *NH             2.5089-6
 NH2             3.6631-6
 NH3             1.1024-5
 NH2OH           9.902-11
 *NO             1.0314-4
 NO2             6.500-10
 *N2             4.2172-1
 N2O             1.6055-8
 NCN             9.073-12
 N2H2            4.438-10
 N2H4            1.408-13
 N3              1.450-11
 N3H             1.492-11
 *O              4.1860-5
 *OH             9.8040-4
 *O2             1.8312-6
 O3              1.219-14

  * THERMODYNAMIC PROPERTIES FITTED TO 20000.K

               THERMODYNAMIC EQUILIBRIUM PROPERTIES AT ASSIGNED

                            TEMPERATURE AND VOLUME

 CASE = test___________

             REACTANT                       MOLES         ENERGY      TEMP
                                                         KJ/KG-MOL      K
 FUEL        CH4                        100.0000000         0.000      0.000
 OXIDANT     Air                        100.0000000         0.000      0.000

 O/F=    5.07015  %FUEL= 16.474048  R,EQ.RATIO= 3.396351  PHI,EQ.RATIO= 3.400000

 THERMODYNAMIC PROPERTIES

 P, BAR            13.545
 T, K             3000.00
 RHO, KG/CU M    1.0000 0
 H, KJ/KG         3703.82
 U, KJ/KG         2349.33
 G, KJ/KG        -34354.6
 S, KJ/(KG)(K)    12.6861

 M, (1/n)          18.415
 (dLV/dLP)t      -1.00645
 (dLV/dLT)p        1.1192
 Cp, KJ/(KG)(K)    3.0283
 GAMMAs            1.2200
 SON VEL,M/SEC     1285.5

 MOLE FRACTIONS

 *Ar             4.9732-3
 *C              9.208-10
 *CH             8.797-10
 CH2             5.5051-9
 CH3             3.4901-8
 CH2OH           1.578-10
 CH3O            3.731-11
 CH4             3.0639-8
 CH3OH           3.093-11
 *CN             1.4993-7
 CNN             1.249-13
 *CO             1.8696-1
 *CO2            2.2883-3
 COOH            7.6631-8
 *C2             1.397-13
 C2H             1.644-11
 C2H2,acetylene  1.2692-9
 C2H2,vinylidene 4.003-12
 CH2CO,ketene    4.085-10
 O(CH)2O         8.747-14
 C2H3,vinyl      6.810-13
 CH3CN           6.928-13
 CH3CO,acetyl    3.751-13
 C2H4            9.778-13
 CH3CHO,ethanal  2.323-14
 CH3COOH         3.706-16
 C2H5            9.220-16
 C2H6            1.435-16
 CCN             8.543-16
 CNC             8.383-14
 OCCN            3.919-11
 C2N2            2.369-11
 C2O             3.163-10
 *C3             3.445-16
 C3H3,2-propynl  7.516-16
 C3O2            8.282-13
 *H              2.4871-2
 HCN             1.9871-5
 HCO             4.8025-6
 HCCN            2.948-15
 HCCO            7.202-11
 HNC             3.4602-6
 HNCO            5.0929-7
 HNO             8.2163-8
 HNO2            1.586-10
 HNO3            1.529-16
 HO2             5.4109-9
 *H2             3.3499-1
 HCHO,formaldehy 3.4926-7
 HCOOH           2.8814-8
 H2O             3.0346-2
 H2O2            2.1484-9
 *N              2.4339-6
 NCO             2.9896-8
 *NH             2.5269-6
 NH2             3.7706-6
 NH3             1.1598-5
 NH2OH           8.531-11
 *NO             8.3238-5
 NO2             4.295-10
 *N2             4.1459-1
 N2O             1.2925-8
 NCN             1.120-11
 N2H2            4.558-10
 N2H4            1.510-13
 N3              1.422-11
 N3H             1.496-11
 *O              3.3863-5
 *OH             8.1058-4
 *O2             1.2131-6
 O3              6.614-15

  * THERMODYNAMIC PROPERTIES FITTED TO 20000.K

               THERMODYNAMIC EQUILIBRIUM PROPERTIES AT ASSIGNED

                            TEMPERATURE AND VOLUME

 CASE = test___________

             REACTANT                       MOLES         ENERGY      TEMP
                                                         KJ/KG-MOL      K
 FUEL        CH4                        100.0000000         0.000      0.000
 OXIDANT     Air                        100.0000000         0.000      0.000

 O/F=    4.92529  %FUEL= 16.876805  R,EQ.RATIO= 3.496199  PHI,EQ.RATIO= 3.500000

 THERMODYNAMIC PROPERTIES

 P, BAR            13.708
 T, K             3000.00
 RHO, KG/CU M    1.0000 0
 H, KJ/KG         3800.86
 U, KJ/KG         2430.10
 G, KJ/KG        -34551.4
 S, KJ/(KG)(K)    12.7841

 M, (1/n)          18.197
 (dLV/dLP)t      -1.00646
 (dLV/dLT)p        1.1191
 Cp, KJ/(KG)(K)    3.0542
 GAMMAs            1.2208
 SON VEL,M/SEC     1293.6

 MOLE FRACTIONS

 *Ar             4.8905-3
 *C              1.1706-9
 *CH             1.1417-9
 CH2             7.2946-9
 CH3             4.7214-8
 CH2OH           1.704-10
 CH3O            4.029-11
 CH4             4.2315-8
 CH3OH           3.409-11
 *CN             1.9016-7
 CNN             1.580-13
 *CO             1.8971-1
 *CO2            1.8532-3
 COOH            6.3360-8
 *C2             2.285-13
 C2H             2.745-11
 C2H2,acetylene  2.1637-9
 C2H2,vinylidene 6.825-12
 CH2CO,ketene    5.558-10
 O(CH)2O         9.500-14
 C2H3,vinyl      1.185-12
 CH3CN           1.203-12
 CH3CO,acetyl    5.211-13
 C2H4            1.737-12
 CH3CHO,ethanal  3.295-14
 CH3COOH         4.195-16
 C2H5            1.673-15
 C2H6            2.658-16
 CCN             1.394-15
 CNC             1.368-13
 OCCN            5.104-11
 C2N2            3.857-11
 C2O             4.129-10
 *C3             7.250-16
 C3H3,2-propynl  1.683-15
 C3O2            1.110-12
 *H              2.5090-2
 HCN             2.5730-5
 HCO             4.9751-6
 HCCN            4.911-15
 HCCO            9.598-11
 HNC             4.4803-6
 HNCO            5.2632-7
 HNO             6.5995-8
 HNO2            1.017-10
 HO2             3.4773-9
 *H2             3.4501-1
 HCHO,formaldehy 3.6938-7
 HCOOH           2.4322-8
 H2O             2.4945-2
 H2O2            1.4095-9
 *N              2.3992-6
 NCO             3.0263-8
 *NH             2.5430-6
 NH2             3.8740-6
 NH3             1.2165-5
 NH2OH           7.142-11
 *NO             6.5489-5
 NO2             2.697-10
 *N2             4.0770-1
 N2O             1.0145-8
 NCN             1.417-11
 N2H2            4.671-10
 N2H4            1.613-13
 N3              1.395-11
 N3H             1.498-11
 *O              2.6707-5
 *OH             6.5265-4
 *O2             7.6360-7
 O3              3.323-15

  * THERMODYNAMIC PROPERTIES FITTED TO 20000.K

               THERMODYNAMIC EQUILIBRIUM PROPERTIES AT ASSIGNED

                            TEMPERATURE AND VOLUME

 CASE = test___________

             REACTANT                       MOLES         ENERGY      TEMP
                                                         KJ/KG-MOL      K
 FUEL        CH4                        100.0000000         0.000      0.000
 OXIDANT     Air                        100.0000000         0.000      0.000

 O/F=    4.78848  %FUEL= 17.275697  R,EQ.RATIO= 3.596047  PHI,EQ.RATIO= 3.600000

 THERMODYNAMIC PROPERTIES

 P, BAR            13.869
 T, K             3000.00
 RHO, KG/CU M    1.0000 0
 H, KJ/KG         3896.96
 U, KJ/KG         2510.09
 G, KJ/KG        -34743.8
 S, KJ/(KG)(K)    12.8803

 M, (1/n)          17.986
 (dLV/dLP)t      -1.00647
 (dLV/dLT)p        1.1189
 Cp, KJ/(KG)(K)    3.0801
 GAMMAs            1.2216
 SON VEL,M/SEC     1301.6

 MOLE FRACTIONS

 *Ar             4.8105-3
 *C              1.5449-9
 *CH             1.5367-9
 CH2             1.0014-8
 CH3             6.6103-8
 CH2OH           1.833-10
 CH3O            4.334-11
 CH4             6.0423-8
 CH3OH           3.741-11
 *CN             2.5035-7
 CNN             2.075-13
 *CO             1.9236-1
 *CO2            1.4437-3
 COOH            5.0343-8
 *C2             4.026-13
 C2H             4.933-11
 C2H2,acetylene  3.9658-9
 C2H2,vinylidene 1.251-11
 CH2CO,ketene    7.827-10
 O(CH)2O         1.028-13
 C2H3,vinyl      2.216-12
 CH3CN           2.243-12
 CH3CO,acetyl    7.484-13
 C2H4            3.313-12
 CH3CHO,ethanal  4.827-14
 CH3COOH         4.721-16
 C2H5            3.252-15
 C2H6            5.271-16
 CCN             2.451-15
 CNC             2.405-13
 OCCN            6.893-11
 C2N2            6.763-11
 C2O             5.590-10
 *C3             1.706-15
 C3H3,2-propynl  4.201-15
 C3H4,propyne    1.990-16
 C3O2            1.542-12
 *H              2.5293-2
 HCN             3.4548-5
 HCO             5.1449-6
 HCCN            8.803-15
 HCCO            1.325-10
 HNC             6.0157-6
 HNCO            5.4297-7
 HNO             5.0992-8
 HNO2            6.038-11
 HO2             2.0693-9
 *H2             3.5471-1
 HCHO,formaldehy 3.8959-7
 HCOOH           1.9710-8
 H2O             1.9705-2
 H2O2            8.555-10
 *N              2.3657-6
 NCO             3.0611-8
 *NH             2.5574-6
 NH2             3.9735-6
 NH3             1.2725-5
 NH2OH           5.740-11
 *NO             4.9614-5
 NO2             1.570-10
 *N2             4.0104-1
 N2O             7.6670-9
 NCN             1.861-11
 N2H2            4.780-10
 N2H4            1.717-13
 N3              1.369-11
 N3H             1.499-11
 *O              2.0281-5
 *OH             5.0549-4
 *O2             4.4554-7
 O3              1.490-15

  * THERMODYNAMIC PROPERTIES FITTED TO 20000.K

               THERMODYNAMIC EQUILIBRIUM PROPERTIES AT ASSIGNED

                            TEMPERATURE AND VOLUME

 CASE = test___________

             REACTANT                       MOLES         ENERGY      TEMP
                                                         KJ/KG-MOL      K
 FUEL        CH4                        100.0000000         0.000      0.000
 OXIDANT     Air                        100.0000000         0.000      0.000

 O/F=    4.65906  %FUEL= 17.670779  R,EQ.RATIO= 3.695895  PHI,EQ.RATIO= 3.700000

 THERMODYNAMIC PROPERTIES

 P, BAR            14.028
 T, K             3000.00
 RHO, KG/CU M    1.0000 0
 H, KJ/KG         3992.13
 U, KJ/KG         2589.34
 G, KJ/KG        -34931.5
 S, KJ/(KG)(K)    12.9746

 M, (1/n)          17.781
 (dLV/dLP)t      -1.00650
 (dLV/dLT)p        1.1188
 Cp, KJ/(KG)(K)    3.1059
 GAMMAs            1.2224
 SON VEL,M/SEC     1309.5

 MOLE FRACTIONS

 *Ar             4.7331-3
 *C              2.1651-9
 *CH             2.1945-9
 CH2             1.4571-8
 CH3             9.8014-8
 CH2OH           1.965-10
 CH3O            4.646-11
 CH4             9.1292-8
 CH3OH           4.086-11
 *CN             3.5001-7
 CNN             2.894-13
 *CO             1.9490-1
 *CO2            1.0576-3
 COOH            3.7578-8
 *C2             7.998-13
 C2H             9.986-11
 C2H2,acetylene  8.1806-9
 C2H2,vinylidene 2.580-11
 CH2CO,ketene    1.1673-9
 O(CH)2O         1.108-13
 C2H3,vinyl      4.657-12
 CH3CN           4.704-12
 CH3CO,acetyl    1.137-12
 C2H4            7.095-12
 CH3CHO,ethanal  7.474-14
 CH3COOH         5.286-16
 C2H5            7.098-15
 C2H6            1.172-15
 CCN             4.857-15
 CNC             4.766-13
 OCCN            9.877-11
 C2N2            1.337-10
 C2O             8.029-10
 *C3             4.803-15
 C3H3,2-propynl  1.252-14
 C3H4,allene     2.839-16
 C3H4,propyne    6.043-16
 C3O2            2.270-12
 *H              2.5480-2
 HCN             4.9217-5
 HCO             5.3119-6
 HCCN            1.778-14
 HCCO            1.940-10
 HNC             8.5702-6
 HNCO            5.5925-7
 HNO             3.7050-8
 HNO2            3.172-11
 HO2             1.0896-9
 *H2             3.6412-1
 HCHO,formaldehy 4.0987-7
 HCOOH           1.4991-8
 H2O             1.4624-2
 H2O2            4.590-10
 *N              2.3332-6
 NCO             3.0942-8
 *NH             2.5701-6
 NH2             4.0690-6
 NH3             1.3279-5
 NH2OH           4.330-11
 *NO             3.5377-5
 NO2             8.094-11
 *N2             3.9458-1
 N2O             5.4539-9
 NCN             2.595-11
 N2H2            4.883-10
 N2H4            1.822-13
 N3              1.343-11
 N3H             1.500-11
 *O              1.4496-5
 *OH             3.6816-4
 *O2             2.3024-7
 O3              5.565-16

  * THERMODYNAMIC PROPERTIES FITTED TO 20000.K

               THERMODYNAMIC EQUILIBRIUM PROPERTIES AT ASSIGNED

                            TEMPERATURE AND VOLUME

 CASE = test___________

             REACTANT                       MOLES         ENERGY      TEMP
                                                         KJ/KG-MOL      K
 FUEL        CH4                        100.0000000         0.000      0.000
 OXIDANT     Air                        100.0000000         0.000      0.000

 O/F=    4.53645  %FUEL= 18.062105  R,EQ.RATIO= 3.795743  PHI,EQ.RATIO= 3.800000

 THERMODYNAMIC PROPERTIES

 P, BAR            14.186
 T, K             3000.00
 RHO, KG/CU M    1.0000 0
 H, KJ/KG         4086.41
 U, KJ/KG         2667.85
 G, KJ/KG        -35114.1
 S, KJ/(KG)(K)    13.0668

 M, (1/n)          17.584
 (dLV/dLP)t      -1.00654
 (dLV/dLT)p        1.1187
 Cp, KJ/(KG)(K)    3.1316
 GAMMAs            1.2231
 SON VEL,M/SEC     1317.2

 MOLE FRACTIONS

 *Ar             4.6583-3
 *C              3.3857-9
 *CH             3.4939-9
 CH2             2.3618-8
 CH3             1.6174-7
 CH2OH           2.099-10
 CH3O            4.964-11
 CH4             1.5338-7
 CH3OH           4.445-11
 *CN             5.4602-7
 CNN             4.504-13
 *CO             1.9734-1
 *CO2            6.9336-4
 COOH            2.5082-8
 *C2             1.978-12
 C2H             2.514-10
 C2H2,acetylene  2.0968-8
 C2H2,vinylidene 6.614-11
 CH2CO,ketene    1.9372-9
 O(CH)2O         1.191-13
 C2H3,vinyl      1.215-11
 CH3CN           1.225-11
 CH3CO,acetyl    1.922-12
 C2H4            1.885-11
 C2H4O,ethylen-o 1.045-16
 CH3CHO,ethanal  1.286-13
 CH3COOH         5.887-16
 C2H5            1.920-14
 C2H6            3.228-15
 CCN             1.198-14
 CNC             1.176-12
 OCCN            1.578-10
 C2N2            3.291-10
 C2O             1.2856-9
 *C3             1.878-14
 C3H3,2-propynl  5.165-14
 C3H4,allene     1.193-15
 C3H4,propyne    2.539-15
 C3O2            3.721-12
 C4H2,butadiyne  4.886-16
 *H              2.5653-2
 HCN             7.8170-5
 HCO             5.4757-6
 HCCN            4.465-14
 HCCO            3.162-10
 HNC             1.3612-5
 HNCO            5.7512-7
 HNO             2.4095-8
 HNO2            1.336-11
 HO2             4.599-10
 *H2             3.7322-1
 HCHO,formaldehy 4.3015-7
 HCOOH           1.0187-8
 H2O             9.7056-3
 H2O2            1.973-10
 *N              2.3018-6
 NCO             3.1255-8
 *NH             2.5814-6
 NH2             4.1608-6
 NH3             1.3824-5
 NH2OH           2.919-11
 *NO             2.2598-5
 NO2             3.348-11
 *N2             3.8833-1
 N2O             3.4754-9
 NCN             4.039-11
 N2H2            4.981-10
 N2H4            1.926-13
 N3              1.319-11
 N3H             1.499-11
 *O              9.2820-6
 *OH             2.4000-4
 *O2             9.5453-8
 O3              1.494-16

  * THERMODYNAMIC PROPERTIES FITTED TO 20000.K

               THERMODYNAMIC EQUILIBRIUM PROPERTIES AT ASSIGNED

                            TEMPERATURE AND VOLUME

 CASE = test___________

             REACTANT                       MOLES         ENERGY      TEMP
                                                         KJ/KG-MOL      K
 FUEL        CH4                        100.0000000         0.000      0.000
 OXIDANT     Air                        100.0000000         0.000      0.000

 O/F=    4.42013  %FUEL= 18.449729  R,EQ.RATIO= 3.895590  PHI,EQ.RATIO= 3.900000

 THERMODYNAMIC PROPERTIES

 P, BAR            14.341
 T, K             3000.00
 RHO, KG/CU M    1.0000 0
 H, KJ/KG         4179.80
 U, KJ/KG         2745.73
 G, KJ/KG        -35290.4
 S, KJ/(KG)(K)    13.1567

 M, (1/n)          17.394
 (dLV/dLP)t      -1.00663
 (dLV/dLT)p        1.1185
 Cp, KJ/(KG)(K)    3.1573
 GAMMAs            1.2237
 SON VEL,M/SEC     1324.7

 MOLE FRACTIONS

 *Ar             4.5861-3
 *C              6.8242-9
 *CH             7.1634-9
 CH2             4.9257-8
 CH3             3.4313-7
 CH2OH           2.235-10
 CH3O            5.286-11
 CH4             3.3097-7
 CH3OH           4.814-11
 *CN             1.0979-6
 CNN             9.034-13
 *CO             1.9964-1
 *CO2            3.5207-4
 COOH            1.2955-8
 *C2             8.123-12
 C2H             1.0503-9
 C2H2,acetylene  8.9106-8
 C2H2,vinylidene 2.811-10
 CH2CO,ketene    4.1320-9
 O(CH)2O         1.275-13
 C2H3,vinyl      5.254-11
 CH3CN           5.281-11
 CH3CO,acetyl    4.169-12
 C2H4            8.288-11
 C2H4O,ethylen-o 2.307-16
 CH3CHO,ethanal  2.837-13
 CH3COOH         6.521-16
 C2H5            8.587-14
 C2H6            1.469-14
 CCN             4.909-14
 CNC             4.817-12
 OCCN            3.244-10
 C2N2            1.3450-9
 C2O             2.6501-9
 *C3             1.572-13
 C3H3,1-propynl  7.626-16
 C3H3,2-propynl  4.549-13
 C3H4,allene     1.069-14
 C3H4,propyne    2.275-14
 C3H4,cyclo-     2.561-16
 C3H5,allyl      1.432-16
 CNCOCN          1.520-16
 C3O2            7.845-12
 C4H2,butadiyne  8.621-15
 C4N2            1.052-16
 *H              2.5812-2
 HCN             1.5988-4
 HCO             5.6349-6
 HCCN            1.861-13
 HCCO            6.630-10
 HNC             2.7840-5
 HNCO            5.9041-7
 HNO             1.2139-8
 HNO2            3.377-12
 HO2             1.166-10
 *H2             3.8199-1
 HCHO,formaldehy 4.5027-7
 HCOOH           5.3523-9
 H2O             4.9859-3
 H2O2            5.086-11
 *N              2.2713-6
 NCO             3.1543-8
 *NH             2.5911-6
 NH2             4.2483-6
 NH3             1.4357-5
 NH2OH           1.522-11
 *NO             1.1192-5
 NO2             8.322-12
 *N2             3.8227-1
 N2O             1.7171-9
 NCN             8.101-11
 N2H2            5.073-10
 N2H4            2.030-13
 N3              1.295-11
 N3H             1.497-11
 *O              4.6084-6
 *OH             1.2121-4
 *O2             2.3786-8

  * THERMODYNAMIC PROPERTIES FITTED TO 20000.K

               THERMODYNAMIC EQUILIBRIUM PROPERTIES AT ASSIGNED

                            TEMPERATURE AND VOLUME

 CASE = test___________

             REACTANT                       MOLES         ENERGY      TEMP
                                                         KJ/KG-MOL      K
 FUEL        CH4                        100.0000000         0.000      0.000
 OXIDANT     Air                        100.0000000         0.000      0.000

 O/F=    4.30963  %FUEL= 18.833702  R,EQ.RATIO= 3.995438  PHI,EQ.RATIO= 4.000000

 THERMODYNAMIC PROPERTIES

 P, BAR            14.484
 T, K             3000.00
 RHO, KG/CU M    1.0000 0
 H, KJ/KG         4272.62
 U, KJ/KG         2824.18
 G, KJ/KG        -35457.9
 S, KJ/(KG)(K)    13.2435

 M, (1/n)          17.221
 (dLV/dLP)t      -1.00699
 (dLV/dLT)p        1.1185
 Cp, KJ/(KG)(K)    3.1835
 GAMMAs            1.2236
 SON VEL,M/SEC     1331.3

 MOLE FRACTIONS

 *Ar             4.5193-3
 *C              3.4235-8
 *CH             3.6484-8
 CH2             2.5470-7
 CH3             1.8013-6
 CH2OH           2.358-10
 CH3O            5.577-11
 CH4             1.7640-6
 CH3OH           5.156-11
 *CN             5.4921-6
 CNN             4.506-12
 *CO             2.0128-1
 *CO2            7.1336-5
 COOH            2.6649-9
 *C2             2.065-10
 C2H             2.7106-8
 C2H2,acetylene  2.3346-6
 C2H2,vinylidene 7.3643-9
 CH2CO,ketene    2.1757-8
 O(CH)2O         1.349-13
 C2H3,vinyl      1.3975-9
 CH3CN           1.4006-9
 CH3CO,acetyl    2.229-11
 C2H4            2.2382-9
 C2H4O,ethylen-o 1.252-15
 CH3CHO,ethanal  1.540-12
 CH3COOH         7.113-16
 C2H5            2.354-12
 C2H6            4.088-13
 CCN             1.244-12
 CNC             1.221-10
 OCCN            1.6526-9
 C2N2            3.3994-8
 C2O             1.3538-8
 *C3             2.025-11
 C3H3,1-propynl  1.028-13
 C3H3,2-propynl  6.132-11
 C3H4,allene     1.462-12
 C3H4,propyne    3.112-12
 C3H4,cyclo-     3.504-14
 C3H5,allyl      1.989-14
 C3H6,propylene  3.587-15
 CNCOCN          3.913-15
 C3O2            4.081-11
 *C4             6.621-16
 C4H2,butadiyne  5.799-12
 C4N2            6.825-14
 *H              2.5945-2
 HCN             8.1197-4
 HCO             5.7677-6
 HCCN            4.789-12
 HCCO            3.4387-9
 HNC             1.4139-4
 HNCO            6.0259-7
 HNO             2.4451-9
 HNO2            1.367-13
 HO2             4.733-12
 *H2             3.8982-1
 HCHO,formaldehy 4.6791-7
 HCOOH           1.1178-9
 H2O             1.0226-3
 H2O2            2.096-12
 *N              2.2424-6
 NCO             3.1710-8
 *NH             2.5970-6
 NH2             4.3229-6
 NH3             1.4832-5
 NH2OH           3.159-12
 *NO             2.2206-6
 NO2             3.318-13
 *N2             3.7632-1
 N2O             3.397-10
 NCN             4.041-10
 N2H2            5.148-10
 N2H4            2.123-13
 N3              1.271-11
 N3H             1.492-11
 *O              9.1696-7
 *OH             2.4485-5
 *O2             9.512-10

  * THERMODYNAMIC PROPERTIES FITTED TO 20000.K