*******************************************************************************

         NASA-GLENN CHEMICAL EQUILIBRIUM PROGRAM CEA2, FEBRUARY 5, 2004
                   BY  BONNIE MCBRIDE AND SANFORD GORDON
      REFS: NASA RP-1311, PART I, 1994 AND NASA RP-1311, PART II, 1996

 *******************************************************************************



  
 ### CEA analysis performed on Mon 11-Jul-2022 13:02:14
  
 # Problem Type: "Assigned Temperature and Volume (or Density)"
  
 prob case=test___________5469 tv
  
 # Temperature (1 value):
 t,k= 3000
 # Density (1 value):
 rho,kg/m**3= 1.0609
  
 # Equivalence based on Fuel/Oxid. wt ratio (Eq 9.19*) (1 value):
 phi= 2.7
  
 # You selected the following fuels and oxidizers:
 reac
 fuel CH4              mole=100.0000  t,k= 300.000
 oxid Air              mole=100.0000  t,k= 300.000
  
 # You selected these options for output:
 # short version of output
 output short
 # Proportions of any products will be expressed as Mole Fractions.
 # Heat will be expressed as siunits
 output siunits
 # Trace variable:
 output trace=1e-16
  
 # Input prepared by this script:/var/www/sites/cearun.grc.nasa.gov/cgi-bin/CEARU
 N/prepareInputFile.cgi
  
 ### IMPORTANT:  The following line is the end of your CEA input file!
 end




               THERMODYNAMIC EQUILIBRIUM PROPERTIES AT ASSIGNED

                            TEMPERATURE AND VOLUME

 CASE = test___________

             REACTANT                       MOLES         ENERGY      TEMP
                                                         KJ/KG-MOL      K
 FUEL        CH4                        100.0000000    -77028.260    300.000
 OXIDANT     Air                        100.0000000     -2566.042    300.000

 O/F=    6.38464  %FUEL= 13.541626  R,EQ.RATIO= 2.697415  PHI,EQ.RATIO= 2.700000

 THERMODYNAMIC PROPERTIES

 P, BAR            13.108
 T, K             3000.00
 RHO, KG/CU M    1.0609 0
 H, KJ/KG         2989.34
 U, KJ/KG         1753.76
 G, KJ/KG        -32784.8
 S, KJ/(KG)(K)    11.9247

 M, (1/n)          20.188
 (dLV/dLP)t      -1.00623
 (dLV/dLT)p        1.1179
 Cp, KJ/(KG)(K)    2.8234
 GAMMAs            1.2137
 SON VEL,M/SEC     1224.6

 MOLE FRACTIONS

 *Ar             5.6432-3
 *C              2.557-10
 *CH             2.098-10
 CH2             1.1281-9
 CH3             6.1436-9
 CH2OH           8.786-11
 CH3O            2.078-11
 CH4             4.6329-9
 CH3OH           1.479-11
 *CN             4.3630-8
 CNN             3.807-14
 *CO             1.6423-1
 *CO2            6.3581-3
 COOH            1.8290-7
 *C2             1.042-14
 C2H             1.054-12
 C2H2,acetylene  6.990-11
 C2H2,vinylidene 2.205-13
 CH2CO,ketene    7.116-11
 O(CH)2O         4.820-14
 C2H3,vinyl      3.222-14
 CH3CN           3.434-14
 CH3CO,acetyl    5.613-14
 C2H4            3.974-14
 CH3CHO,ethanal  2.987-15
 CH3COOH         1.507-16
 CNC             6.556-15
 OCCN            9.694-12
 C2N2            1.941-12
 C2O             7.467-11
 C3O2            1.662-13
 *H              2.2077-2
 HCN             4.9672-6
 HCO             3.6239-6
 HCCN            1.980-16
 HCCO            1.460-11
 HNC             8.6493-7
 HNCO            4.0268-7
 HNO             2.4172-7
 HNO2            1.4764-9
 HNO3            4.501-15
 HO2             4.8055-8
 *H2             2.5542-1
 HCHO,formaldehy 2.2639-7
 HCOOH           5.9078-8
 H2O             7.3190-2
 H2O2            1.6390-8
 *N              2.6353-6
 NCO             2.7518-8
 *NH             2.3502-6
 NH2             3.0126-6
 NH3             7.9597-6
 NH2OH           1.852-10
 *NO             2.8508-4
 NO2             4.6533-9
 NO3             4.764-16
 *N2             4.7037-1
 N2O             4.6384-8
 NCN             3.414-12
 N2H2            3.815-10
 N2H4            9.330-14
 N3              1.690-11
 N3H             1.527-11
 *O              1.1068-4
 *OH             2.2758-3
 *O2             1.2542-5
 O3              2.163-13

  * THERMODYNAMIC PROPERTIES FITTED TO 20000.K


