*******************************************************************************

         NASA-GLENN CHEMICAL EQUILIBRIUM PROGRAM CEA2, FEBRUARY 5, 2004
                   BY  BONNIE MCBRIDE AND SANFORD GORDON
      REFS: NASA RP-1311, PART I, 1994 AND NASA RP-1311, PART II, 1996

 *******************************************************************************



  
 ### CEA analysis performed on Mon 11-Jul-2022 12:24:35
  
 # Problem Type: "Assigned Temperature and Volume (or Density)"
  
 prob case=test___________5469 tv
  
 # Temperature (1 value):
 t,k= 3000
 # Density (1 value):
 rho,kg/m**3= 1.1269
  
 # Equivalence based on Fuel/Oxid. wt ratio (Eq 9.19*) (1 value):
 phi= 1
  
 # You selected the following fuels and oxidizers:
 reac
 fuel CH4              mole=100.0000  t,k= 300.000
 oxid Air              mole=100.0000  t,k= 300.000
  
 # You selected these options for output:
 # short version of output
 output short
 # Proportions of any products will be expressed as Mole Fractions.
 # Heat will be expressed as siunits
 output siunits
 # Trace variable:
 output trace=1e-16
  
 # Input prepared by this script:/var/www/sites/cearun.grc.nasa.gov/cgi-bin/CEARU
 N/prepareInputFile.cgi
  
 ### IMPORTANT:  The following line is the end of your CEA input file!
 end




               THERMODYNAMIC EQUILIBRIUM PROPERTIES AT ASSIGNED

                            TEMPERATURE AND VOLUME

 CASE = test___________

             REACTANT                       MOLES         ENERGY      TEMP
                                                         KJ/KG-MOL      K
 FUEL        CH4                        100.0000000    -77028.260    300.000
 OXIDANT     Air                        100.0000000     -2566.042    300.000

 O/F=   17.23852  %FUEL=  5.482900  R,EQ.RATIO= 1.000000  PHI,EQ.RATIO= 1.000000

 THERMODYNAMIC PROPERTIES

 P, BAR            10.561
 T, K             3000.00
 RHO, KG/CU M    1.1269 0
 H, KJ/KG         1636.68
 U, KJ/KG          699.53
 G, KJ/KG        -27880.6
 S, KJ/(KG)(K)     9.8391

 M, (1/n)          26.616
 (dLV/dLP)t      -1.01280
 (dLV/dLT)p        1.2762
 Cp, KJ/(KG)(K)    3.4629
 GAMMAs            1.1549
 SON VEL,M/SEC     1040.3

 MOLE FRACTIONS

 *Ar             8.1338-3
 *C              1.943-12
 *CH             3.623-13
 CH2             4.424-13
 CH3             5.474-13
 CH2OH           2.538-13
 CH3O            6.003-14
 CH4             9.379-14
 CH3OH           9.711-15
 *CN             3.557-10
 CNN             3.330-16
 *CO             4.0459-2
 *CO2            5.0786-2
 COOH            3.3193-7
 C2H2,acetylene  1.678-16
 CH2CO,ketene    5.539-15
 O(CH)2O         1.217-16
 HO(CO)2OH       2.218-16
 OCCN            1.568-14
 C2N2            1.039-16
 C2O             1.126-13
 *H              6.2257-3
 HCN             9.1993-9
 HCO             2.0283-7
 HCCO            5.004-15
 HNC             1.6019-9
 HNCO            2.4181-8
 HNO             2.3712-6
 HNO2            4.6958-7
 HNO3            4.642-11
 HO2             1.4246-5
 *H2             1.6365-2
 HCHO,formaldehy 2.8789-9
 HCOOH           2.4358-8
 H2O             1.5204-1
 H2O2            1.1040-6
 *N              3.5093-6
 NCO             7.2731-9
 *NH             7.1107-7
 NH2             2.0708-7
 NH3             1.2431-7
 NH2OH           9.377-11
 *NO             1.2309-2
 NO2             6.5144-6
 NO3             2.162-11
 *N2             6.7202-1
 N2O             2.1487-6
 NCN             2.986-14
 N2H2            2.814-11
 NH2NO2          9.438-16
 N2H4            3.552-16
 N2O3            1.044-12
 N3              2.591-11
 N3H             5.319-12
 *O              4.4543-3
 *OH             2.0809-2
 *O2             1.6365-2
 O3              9.1510-9

  * THERMODYNAMIC PROPERTIES FITTED TO 20000.K





