*******************************************************************************

         NASA-GLENN CHEMICAL EQUILIBRIUM PROGRAM CEA2, FEBRUARY 5, 2004
                   BY  BONNIE MCBRIDE AND SANFORD GORDON
      REFS: NASA RP-1311, PART I, 1994 AND NASA RP-1311, PART II, 1996

 *******************************************************************************



  
 ### CEA analysis performed on Mon 11-Jul-2022 13:04:02
  
 # Problem Type: "Assigned Temperature and Volume (or Density)"
  
 prob case=test___________5469 tv
  
 # Temperature (1 value):
 t,k= 3000
 # Density (1 value):
 rho,kg/m**3= 1.0480
  
 # Equivalence based on Fuel/Oxid. wt ratio (Eq 9.19*) (1 value):
 phi= 3.1
  
 # You selected the following fuels and oxidizers:
 reac
 fuel CH4              mole=100.0000  t,k= 300.000
 oxid Air              mole=100.0000  t,k= 300.000
  
 # You selected these options for output:
 # short version of output
 output short
 # Proportions of any products will be expressed as Mole Fractions.
 # Heat will be expressed as siunits
 output siunits
 # Trace variable:
 output trace=1e-16
  
 # Input prepared by this script:/var/www/sites/cearun.grc.nasa.gov/cgi-bin/CEARU
 N/prepareInputFile.cgi
  
 ### IMPORTANT:  The following line is the end of your CEA input file!
 end




               THERMODYNAMIC EQUILIBRIUM PROPERTIES AT ASSIGNED

                            TEMPERATURE AND VOLUME

 CASE = test___________

             REACTANT                       MOLES         ENERGY      TEMP
                                                         KJ/KG-MOL      K
 FUEL        CH4                        100.0000000    -77028.260    300.000
 OXIDANT     Air                        100.0000000     -2566.042    300.000

 O/F=    5.56081  %FUEL= 15.242012  R,EQ.RATIO= 3.096807  PHI,EQ.RATIO= 3.100000

 THERMODYNAMIC PROPERTIES

 P, BAR            13.670
 T, K             3000.00
 RHO, KG/CU M    1.0480 0
 H, KJ/KG         3399.85
 U, KJ/KG         2095.51
 G, KJ/KG        -33677.9
 S, KJ/(KG)(K)    12.3593

 M, (1/n)          19.123
 (dLV/dLP)t      -1.00628
 (dLV/dLT)p        1.1171
 Cp, KJ/(KG)(K)    2.9284
 GAMMAs            1.2180
 SON VEL,M/SEC     1260.5

 MOLE FRACTIONS

 *Ar             5.2406-3
 *C              5.060-10
 *CH             4.621-10
 CH2             2.7642-9
 CH3             1.6751-8
 CH2OH           1.313-10
 CH3O            3.104-11
 CH4             1.4057-8
 CH3OH           2.459-11
 *CN             8.4968-8
 CNN             7.297-14
 *CO             1.7808-1
 *CO2            3.7775-3
 COOH            1.2092-7
 *C2             4.257-14
 C2H             4.789-12
 C2H2,acetylene  3.534-10
 C2H2,vinylidene 1.115-12
 CH2CO,ketene    1.972-10
 O(CH)2O         7.318-14
 C2H3,vinyl      1.813-13
 CH3CN           1.902-13
 CH3CO,acetyl    1.731-13
 C2H4            2.488-13
 CH3CHO,ethanal  1.025-14
 CH3COOH         2.833-16
 C2H5            2.243-16
 CCN             2.685-16
 CNC             2.635-14
 OCCN            2.135-11
 C2N2            7.679-12
 C2O             1.671-10
 C3H3,2-propynl  1.110-16
 C3O2            4.205-13
 *H              2.3557-2
 HCN             1.0764-5
 HCO             4.3725-6
 HCCN            8.856-16
 HCCO            3.636-11
 HNC             1.8744-6
 HNCO            4.7816-7
 HNO             1.3909-7
 HNO2            4.655-10
 HNO3            7.776-16
 HO2             1.5396-8
 *H2             3.0329-1
 HCHO,formaldehy 3.0396-7
 HCOOH           4.3462-8
 H2O             4.7619-2
 H2O2            5.8431-9
 *N              2.4870-6
 NCO             2.9365-8
 *NH             2.4681-6
 NH2             3.5204-6
 NH3             1.0350-5
 NH2OH           1.320-10
 *NO             1.4742-4
 NO2             1.3185-9
 *N2             4.3686-1
 N2O             2.3605-8
 NCN             6.543-12
 N2H2            4.388-10
 N2H4            1.329-13
 N3              1.545-11
 N3H             1.554-11
 *O              5.8157-5
 *OH             1.3307-3
 *O2             3.6109-6
 O3              3.412-14

  * THERMODYNAMIC PROPERTIES FITTED TO 20000.K


