*******************************************************************************

         NASA-GLENN CHEMICAL EQUILIBRIUM PROGRAM CEA2, FEBRUARY 5, 2004
                   BY  BONNIE MCBRIDE AND SANFORD GORDON
      REFS: NASA RP-1311, PART I, 1994 AND NASA RP-1311, PART II, 1996

 *******************************************************************************



  
 ### CEA analysis performed on Mon 11-Jul-2022 12:59:23
  
 # Problem Type: "Assigned Temperature and Volume (or Density)"
  
 prob case=test___________5469 tv
  
 # Temperature (1 value):
 t,k= 3000
 # Density (1 value):
 rho,kg/m**3= 1.0820
  
 # Equivalence based on Fuel/Oxid. wt ratio (Eq 9.19*) (1 value):
 phi= 2.1
  
 # You selected the following fuels and oxidizers:
 reac
 fuel CH4              mole=100.0000  t,k= 300.000
 oxid Air              mole=100.0000  t,k= 300.000
  
 # You selected these options for output:
 # short version of output
 output short
 # Proportions of any products will be expressed as Mole Fractions.
 # Heat will be expressed as siunits
 output siunits
 # Trace variable:
 output trace=1e-16
  
 # Input prepared by this script:/var/www/sites/cearun.grc.nasa.gov/cgi-bin/CEARU
 N/prepareInputFile.cgi
  
 ### IMPORTANT:  The following line is the end of your CEA input file!
 end




               THERMODYNAMIC EQUILIBRIUM PROPERTIES AT ASSIGNED

                            TEMPERATURE AND VOLUME

 CASE = test___________

             REACTANT                       MOLES         ENERGY      TEMP
                                                         KJ/KG-MOL      K
 FUEL        CH4                        100.0000000    -77028.260    300.000
 OXIDANT     Air                        100.0000000     -2566.042    300.000

 O/F=    8.20882  %FUEL= 10.859155  R,EQ.RATIO= 2.098327  PHI,EQ.RATIO= 2.100000

 THERMODYNAMIC PROPERTIES

 P, BAR            12.198
 T, K             3000.00
 RHO, KG/CU M    1.0820 0
 H, KJ/KG         2347.57
 U, KJ/KG         1220.23
 G, KJ/KG        -31303.7
 S, KJ/(KG)(K)    11.2171

 M, (1/n)          22.126
 (dLV/dLP)t      -1.00631
 (dLV/dLT)p        1.1236
 Cp, KJ/(KG)(K)    2.7019
 GAMMAs            1.2038
 SON VEL,M/SEC     1164.9

 MOLE FRACTIONS

 *Ar             6.3769-3
 *C              8.920-11
 *CH             5.772-11
 CH2             2.447-10
 CH3             1.0508-9
 CH2OH           3.601-11
 CH3O            8.514-12
 CH4             6.249-10
 CH3OH           4.781-12
 *CN             1.5603-8
 CNN             1.396-14
 *CO             1.3725-1
 *CO2            1.2731-2
 COOH            2.8880-7
 *C2             1.180-15
 C2H             9.409-14
 C2H2,acetylene  4.921-12
 C2H2,vinylidene 1.552-14
 CH2CO,ketene    1.200-11
 O(CH)2O         1.948-14
 HO(CO)2OH       1.939-16
 C2H3,vinyl      1.789-15
 CH3CN           1.955-15
 CH3CO,acetyl    7.466-15
 C2H4            1.740-15
 CH3CHO,ethanal  3.133-16
 CNC             7.610-16
 OCCN            2.696-12
 C2N2            2.311-13
 C2O             2.026-11
 C3O2            3.506-14
 *H              1.8708-2
 HCN             1.4008-6
 HCO             2.3882-6
 HCCO            3.124-12
 HNC             2.4391-7
 HNCO            2.7207-7
 HNO             5.0316-7
 HNO2            7.3631-9
 HNO3            5.378-14
 HO2             2.3376-7
 *H2             1.7068-1
 HCHO,formaldehy 1.1765-7
 HCOOH           7.3558-8
 H2O             1.1718-1
 H2O2            6.2871-8
 *N              2.9034-6
 NCO             2.3578-8
 *NH             2.0419-6
 NH2             2.0639-6
 NH3             4.3002-6
 NH2OH           2.397-10
 *NO             7.5253-4
 NO2             2.9430-8
 NO3             7.219-15
 *N2             5.3131-1
 N2O             1.2553-7
 NCN             1.252-12
 N2H2            2.680-10
 N2H4            4.075-14
 N2O3            3.330-16
 N3              1.957-11
 N3H             1.395-11
 *O              2.8497-4
 *OH             4.6207-3
 *O2             7.7367-5
 O3              3.197-12

  * THERMODYNAMIC PROPERTIES FITTED TO 20000.K


