*******************************************************************************

         NASA-GLENN CHEMICAL EQUILIBRIUM PROGRAM CEA2, FEBRUARY 5, 2004
                   BY  BONNIE MCBRIDE AND SANFORD GORDON
      REFS: NASA RP-1311, PART I, 1994 AND NASA RP-1311, PART II, 1996

 *******************************************************************************



  
 ### CEA analysis performed on Mon 11-Jul-2022 13:01:50
  
 # Problem Type: "Assigned Temperature and Volume (or Density)"
  
 prob case=test___________5469 tv
  
 # Temperature (1 value):
 t,k= 3000
 # Density (1 value):
 rho,kg/m**3= 1.0643
  
 # Equivalence based on Fuel/Oxid. wt ratio (Eq 9.19*) (1 value):
 phi= 2.6
  
 # You selected the following fuels and oxidizers:
 reac
 fuel CH4              mole=100.0000  t,k= 300.000
 oxid Air              mole=100.0000  t,k= 300.000
  
 # You selected these options for output:
 # short version of output
 output short
 # Proportions of any products will be expressed as Mole Fractions.
 # Heat will be expressed as siunits
 output siunits
 # Trace variable:
 output trace=1e-16
  
 # Input prepared by this script:/var/www/sites/cearun.grc.nasa.gov/cgi-bin/CEARU
 N/prepareInputFile.cgi
  
 ### IMPORTANT:  The following line is the end of your CEA input file!
 end




               THERMODYNAMIC EQUILIBRIUM PROPERTIES AT ASSIGNED

                            TEMPERATURE AND VOLUME

 CASE = test___________

             REACTANT                       MOLES         ENERGY      TEMP
                                                         KJ/KG-MOL      K
 FUEL        CH4                        100.0000000    -77028.260    300.000
 OXIDANT     Air                        100.0000000     -2566.042    300.000

 O/F=    6.63020  %FUEL= 13.105815  R,EQ.RATIO= 2.597567  PHI,EQ.RATIO= 2.600000

 THERMODYNAMIC PROPERTIES

 P, BAR            12.963
 T, K             3000.00
 RHO, KG/CU M    1.0643 0
 H, KJ/KG         2884.37
 U, KJ/KG         1666.40
 G, KJ/KG        -32550.4
 S, KJ/(KG)(K)    11.8116

 M, (1/n)          20.480
 (dLV/dLP)t      -1.00622
 (dLV/dLT)p        1.1182
 Cp, KJ/(KG)(K)    2.7987
 GAMMAs            1.2124
 SON VEL,M/SEC     1215.2

 MOLE FRACTIONS

 *Ar             5.7537-3
 *C              2.166-10
 *CH             1.722-10
 CH2             8.969-10
 CH3             4.7320-9
 CH2OH           7.800-11
 CH3O            1.845-11
 CH4             3.4571-9
 CH3OH           1.272-11
 *CN             3.7107-8
 CNN             3.251-14
 *CO             1.6034-1
 *CO2            7.1548-3
 COOH            1.9940-7
 *C2             7.396-15
 C2H             7.244-13
 C2H2,acetylene  4.655-11
 C2H2,vinylidene 1.468-13
 CH2CO,ketene    5.462-11
 O(CH)2O         4.264-14
 C2H3,vinyl      2.079-14
 CH3CN           2.225-14
 CH3CO,acetyl    4.174-14
 C2H4            2.484-14
 CH3CHO,ethanal  2.152-15
 CH3COOH         1.251-16
 CNC             4.671-15
 OCCN            7.960-12
 C2N2            1.389-12
 C2O             6.106-11
 C3O2            1.312-13
 *H              2.1628-2
 HCN             4.0928-6
 HCO             3.4277-6
 HCCN            1.367-16
 HCCO            1.157-11
 HNC             7.1269-7
 HNCO            3.8244-7
 HNO             2.7407-7
 HNO2            1.9294-9
 HNO3            6.780-15
 HO2             6.2544-8
 *H2             2.4243-1
 HCHO,formaldehy 2.0745-7
 HCOOH           6.2398-8
 H2O             8.0068-2
 H2O2            2.0667-8
 *N              2.6758-6
 NCO             2.6976-8
 *NH             2.3119-6
 NH2             2.8710-6
 NH3             7.3490-6
 NH2OH           1.971-10
 *NO             3.3363-4
 NO2             6.2770-9
 NO3             7.407-16
 *N2             4.7955-1
 N2O             5.4507-8
 NCN             2.916-12
 N2H2            3.651-10
 N2H4            8.380-14
 N3              1.730-11
 N3H             1.515-11
 *O              1.2900-4
 *OH             2.5698-3
 *O2             1.6849-5
 O3              3.349-13

  * THERMODYNAMIC PROPERTIES FITTED TO 20000.K


