 *******************************************************************************

         NASA-GLENN CHEMICAL EQUILIBRIUM PROGRAM CEA2, FEBRUARY 5, 2004
                   BY  BONNIE MCBRIDE AND SANFORD GORDON
      REFS: NASA RP-1311, PART I, 1994 AND NASA RP-1311, PART II, 1996

 *******************************************************************************



  
 ### CEA analysis performed on Mon 11-Jul-2022 13:00:58
  
 # Problem Type: "Assigned Temperature and Volume (or Density)"
  
 prob case=test___________5469 tv
  
 # Temperature (1 value):
 t,k= 3000
 # Density (1 value):
 rho,kg/m**3= 1.0712
  
 # Equivalence based on Fuel/Oxid. wt ratio (Eq 9.19*) (1 value):
 phi= 2.4
  
 # You selected the following fuels and oxidizers:
 reac
 fuel CH4              mole=100.0000  t,k= 300.000
 oxid Air              mole=100.0000  t,k= 300.000
  
 # You selected these options for output:
 # short version of output
 output short
 # Proportions of any products will be expressed as Mole Fractions.
 # Heat will be expressed as siunits
 output siunits
 # Trace variable:
 output trace=1e-16
  
 # Input prepared by this script:/var/www/sites/cearun.grc.nasa.gov/cgi-bin/CEARU
 N/prepareInputFile.cgi
  
 ### IMPORTANT:  The following line is the end of your CEA input file!
 end




               THERMODYNAMIC EQUILIBRIUM PROPERTIES AT ASSIGNED

                            TEMPERATURE AND VOLUME

 CASE = test___________

             REACTANT                       MOLES         ENERGY      TEMP
                                                         KJ/KG-MOL      K
 FUEL        CH4                        100.0000000    -77028.260    300.000
 OXIDANT     Air                        100.0000000     -2566.042    300.000

 O/F=    7.18272  %FUEL= 12.220879  R,EQ.RATIO= 2.397871  PHI,EQ.RATIO= 2.400000

 THERMODYNAMIC PROPERTIES

 P, BAR            12.664
 T, K             3000.00
 RHO, KG/CU M    1.0712 0
 H, KJ/KG         2671.82
 U, KJ/KG         1489.59
 G, KJ/KG        -32067.3
 S, KJ/(KG)(K)    11.5797

 M, (1/n)          21.099
 (dLV/dLP)t      -1.00622
 (dLV/dLT)p        1.1195
 Cp, KJ/(KG)(K)    2.7530
 GAMMAs            1.2094
 SON VEL,M/SEC     1195.8

 MOLE FRACTIONS

 *Ar             5.9880-3
 *C              1.544-10
 *CH             1.143-10
 CH2             5.543-10
 CH3             2.7230-9
 CH2OH           5.964-11
 CH3O            1.410-11
 CH4             1.8522-9
 CH3OH           9.058-12
 *CN             2.6678-8
 CNN             2.357-14
 *CO             1.5192-1
 *CO2            9.0078-3
 COOH            2.3373-7
 *C2             3.674-15
 C2H             3.350-13
 C2H2,acetylene  2.004-11
 C2H2,vinylidene 6.322-14
 CH2CO,ketene    3.125-11
 O(CH)2O         3.242-14
 HO(CO)2OH       1.319-16
 C2H3,vinyl      8.332-15
 CH3CN           8.992-15
 CH3CO,acetyl    2.223-14
 C2H4            9.269-15
 CH3CHO,ethanal  1.067-15
 CNC             2.339-15
 OCCN            5.297-12
 C2N2            7.013-13
 C2O             4.030-11
 C3O2            8.017-14
 *H              2.0612-2
 HCN             2.7395-6
 HCO             3.0236-6
 HCCO            7.110-12
 HNC             4.7704-7
 HNCO            3.4015-7
 HNO             3.4994-7
 HNO2            3.2735-9
 HNO3            1.528-14
 HO2             1.0525-7
 *H2             2.1510-1
 HCHO,formaldehy 1.7038-7
 HCOOH           6.8097-8
 H2O             9.4402-2
 H2O2            3.2378-8
 *N              2.7616-6
 NCO             2.5771-8
 *NH             2.2215-6
 NH2             2.5685-6
 NH3             6.1213-6
 NH2OH           2.181-10
 *NO             4.5755-4
 NO2             1.1439-8
 NO3             1.794-15
 *N2             4.9903-1
 N2O             7.5371-8
 NCN             2.113-12
 N2H2            3.293-10
 N2H4            6.552-14
 N3              1.816-11
 N3H             1.480-11
 *O              1.7547-4
 *OH             3.2543-3
 *O2             3.0452-5
 O3              8.044-13

  * THERMODYNAMIC PROPERTIES FITTED TO 20000.K



