*******************************************************************************

         NASA-GLENN CHEMICAL EQUILIBRIUM PROGRAM CEA2, FEBRUARY 5, 2004
                   BY  BONNIE MCBRIDE AND SANFORD GORDON
      REFS: NASA RP-1311, PART I, 1994 AND NASA RP-1311, PART II, 1996

 *******************************************************************************



  
 ### CEA analysis performed on Mon 11-Jul-2022 12:53:28
  
 # Problem Type: "Assigned Temperature and Volume (or Density)"
  
 prob case=test___________5469 tv
  
 # Temperature (1 value):
 t,k= 3000
 # Density (1 value):
 rho,kg/m**3= 1.1053
  
 # Equivalence based on Fuel/Oxid. wt ratio (Eq 9.19*) (1 value):
 phi= 1.5
  
 # You selected the following fuels and oxidizers:
 reac
 fuel CH4              mole=100.0000  t,k= 300.000
 oxid Air              mole=100.0000  t,k= 300.000
  
 # You selected these options for output:
 # short version of output
 output short
 # Proportions of any products will be expressed as Mole Fractions.
 # Heat will be expressed as siunits
 output siunits
 # Trace variable:
 output trace=1e-16
  
 # Input prepared by this script:/var/www/sites/cearun.grc.nasa.gov/cgi-bin/CEARU
 N/prepareInputFile.cgi
  
 ### IMPORTANT:  The following line is the end of your CEA input file!
 end




               THERMODYNAMIC EQUILIBRIUM PROPERTIES AT ASSIGNED

                            TEMPERATURE AND VOLUME

 CASE = test___________

             REACTANT                       MOLES         ENERGY      TEMP
                                                         KJ/KG-MOL      K
 FUEL        CH4                        100.0000000    -77028.260    300.000
 OXIDANT     Air                        100.0000000     -2566.042    300.000

 O/F=   11.49235  %FUEL=  8.004900  R,EQ.RATIO= 1.499240  PHI,EQ.RATIO= 1.500000

 THERMODYNAMIC PROPERTIES

 P, BAR            11.214
 T, K             3000.00
 RHO, KG/CU M    1.1053 0
 H, KJ/KG         1716.19
 U, KJ/KG          701.66
 G, KJ/KG        -29598.9
 S, KJ/(KG)(K)    10.4384

 M, (1/n)          24.586
 (dLV/dLP)t      -1.00787
 (dLV/dLT)p        1.1650
 Cp, KJ/(KG)(K)    2.8469
 GAMMAs            1.1811
 SON VEL,M/SEC     1094.7

 MOLE FRACTIONS

 *Ar             7.3129-3
 *C              1.916-11
 *CH             7.774-12
 CH2             2.066-11
 CH3             5.562-11
 CH2OH           6.122-12
 CH3O            1.448-12
 CH4             2.074-11
 CH3OH           5.096-13
 *CN             3.4388-9
 CNN             3.157-15
 *CO             9.4709-2
 *CO2            2.8220-2
 COOH            4.0134-7
 C2H             2.502-15
 C2H2,acetylene  8.205-14
 C2H2,vinylidene 2.588-16
 CH2CO,ketene    6.429-13
 O(CH)2O         3.352-15
 HO(CO)2OH       3.443-16
 CH3CO,acetyl    2.507-16
 OCCN            3.769-13
 C2N2            1.032-14
 C2O             2.760-12
 C3O2            3.031-15
 *H              1.2758-2
 HCN             1.9355-7
 HCO             1.0332-6
 HCCO            2.669-13
 HNC             3.3703-8
 HNCO            1.2076-7
 HNO             1.1309-6
 HNO2            5.3162-8
 HNO3            1.247-12
 HO2             1.6450-6
 *H2             7.2977-2
 HCHO,formaldehy 3.1909-8
 HCOOH           6.4087-8
 H2O             1.6094-1
 H2O2            2.7738-7
 *N              3.2404-6
 NCO             1.6693-8
 *NH             1.4287-6
 NH2             9.0538-7
 NH3             1.1826-6
 NH2OH           2.118-10
 *NO             2.6979-3
 NO2             3.3892-7
 NO3             2.670-13
 *N2             6.0839-1
 N2O             4.6174-7
 NCN             2.830-13
 N2H2            1.206-10
 NH2NO2          2.280-16
 N2H4            7.209-15
 N2O3            1.264-14
 N3              2.300-11
 N3H             1.027-11
 *O              9.9577-4
 *OH             1.0123-2
 *O2             8.6841-4
 O3              1.153-10

  * THERMODYNAMIC PROPERTIES FITTED TO 20000.K


