*******************************************************************************

         NASA-GLENN CHEMICAL EQUILIBRIUM PROGRAM CEA2, FEBRUARY 5, 2004
                   BY  BONNIE MCBRIDE AND SANFORD GORDON
      REFS: NASA RP-1311, PART I, 1994 AND NASA RP-1311, PART II, 1996

 *******************************************************************************



  
 ### CEA analysis performed on Mon 11-Jul-2022 13:04:42
  
 # Problem Type: "Assigned Temperature and Volume (or Density)"
  
 prob case=test___________5469 tv
  
 # Temperature (1 value):
 t,k= 3000
 # Density (1 value):
 rho,kg/m**3= 1.0418
  
 # Equivalence based on Fuel/Oxid. wt ratio (Eq 9.19*) (1 value):
 phi= 3.3
  
 # You selected the following fuels and oxidizers:
 reac
 fuel CH4              mole=100.0000  t,k= 300.000
 oxid Air              mole=100.0000  t,k= 300.000
  
 # You selected these options for output:
 # short version of output
 output short
 # Proportions of any products will be expressed as Mole Fractions.
 # Heat will be expressed as siunits
 output siunits
 # Trace variable:
 output trace=1e-16
  
 # Input prepared by this script:/var/www/sites/cearun.grc.nasa.gov/cgi-bin/CEARU
 N/prepareInputFile.cgi
  
 ### IMPORTANT:  The following line is the end of your CEA input file!
 end




               THERMODYNAMIC EQUILIBRIUM PROPERTIES AT ASSIGNED

                            TEMPERATURE AND VOLUME

 CASE = test___________

             REACTANT                       MOLES         ENERGY      TEMP
                                                         KJ/KG-MOL      K
 FUEL        CH4                        100.0000000    -77028.260    300.000
 OXIDANT     Air                        100.0000000     -2566.042    300.000

 O/F=    5.22379  %FUEL= 16.067368  R,EQ.RATIO= 3.296503  PHI,EQ.RATIO= 3.300000

 THERMODYNAMIC PROPERTIES

 P, BAR            13.936
 T, K             3000.00
 RHO, KG/CU M    1.0418 0
 H, KJ/KG         3599.42
 U, KJ/KG         2261.69
 G, KJ/KG        -34099.1
 S, KJ/(KG)(K)    12.5662

 M, (1/n)          18.646
 (dLV/dLP)t      -1.00631
 (dLV/dLT)p        1.1171
 Cp, KJ/(KG)(K)    2.9825
 GAMMAs            1.2199
 SON VEL,M/SEC     1277.4

 MOLE FRACTIONS

 *Ar             5.0600-3
 *C              7.427-10
 *CH             7.089-10
 CH2             4.4320-9
 CH3             2.8072-8
 CH2OH           1.550-10
 CH3O            3.665-11
 CH4             2.4620-8
 CH3OH           3.035-11
 *CN             1.2374-7
 CNN             1.054-13
 *CO             1.8415-1
 *CO2            2.7522-3
 COOH            9.2081-8
 *C2             9.350-14
 C2H             1.099-11
 C2H2,acetylene  8.480-10
 C2H2,vinylidene 2.675-12
 CH2CO,ketene    3.333-10
 O(CH)2O         8.715-14
 C2H3,vinyl      4.546-13
 CH3CN           4.732-13
 CH3CO,acetyl    3.057-13
 C2H4            6.521-13
 CH3CHO,ethanal  1.892-14
 CH3COOH         3.685-16
 C2H5            6.143-16
 CCN             5.852-16
 CNC             5.742-14
 OCCN            3.278-11
 C2N2            1.660-11
 C2O             2.585-10
 *C3             1.914-16
 C3H3,2-propynl  4.163-16
 C3O2            6.860-13
 *H              2.4150-2
 HCN             1.6384-5
 HCO             4.7258-6
 HCCN            2.017-15
 HCCO            5.881-11
 HNC             2.8529-6
 HNCO            5.1276-7
 HNO             9.9677-8
 HNO2            2.350-10
 HNO3            2.766-16
 HO2             7.8344-9
 *H2             3.2497-1
 HCHO,formaldehy 3.4336-7
 HCOOH           3.4590-8
 H2O             3.5947-2
 H2O2            3.1077-9
 *N              2.4203-6
 NCO             3.0129-8
 *NH             2.5104-6
 NH2             3.7425-6
 NH3             1.1500-5
 NH2OH           1.033-10
 *NO             1.0108-4
 NO2             6.369-10
 *N2             4.2183-1
 N2O             1.6059-8
 NCN             9.455-12
 N2H2            4.628-10
 N2H4            1.531-13
 N3              1.480-11
 N3H             1.556-11
 *O              4.0189-5
 *OH             9.6110-4
 *O2             1.7581-6
 O3              1.170-14

  * THERMODYNAMIC PROPERTIES FITTED TO 20000.K

