 *******************************************************************************

         NASA-GLENN CHEMICAL EQUILIBRIUM PROGRAM CEA2, FEBRUARY 5, 2004
                   BY  BONNIE MCBRIDE AND SANFORD GORDON
      REFS: NASA RP-1311, PART I, 1994 AND NASA RP-1311, PART II, 1996

 *******************************************************************************



  
 ### CEA analysis performed on Mon 11-Jul-2022 12:51:52
  
 # Problem Type: "Assigned Temperature and Volume (or Density)"
  
 prob case=test___________5469 tv
  
 # Temperature (1 value):
 t,k= 3000
 # Density (1 value):
 rho,kg/m**3= 1.1137
  
 # Equivalence based on Fuel/Oxid. wt ratio (Eq 9.19*) (1 value):
 phi= 1.3
  
 # You selected the following fuels and oxidizers:
 reac
 fuel CH4              mole=100.0000  t,k= 300.000
 oxid Air              mole=100.0000  t,k= 300.000
  
 # You selected these options for output:
 # short version of output
 output short
 # Proportions of any products will be expressed as Mole Fractions.
 # Heat will be expressed as siunits
 output siunits
 # Trace variable:
 output trace=1e-16
  
 # Input prepared by this script:/var/www/sites/cearun.grc.nasa.gov/cgi-bin/CEARU
 N/prepareInputFile.cgi
  
 ### IMPORTANT:  The following line is the end of your CEA input file!
 end




               THERMODYNAMIC EQUILIBRIUM PROPERTIES AT ASSIGNED

                            TEMPERATURE AND VOLUME

 CASE = test___________

             REACTANT                       MOLES         ENERGY      TEMP
                                                         KJ/KG-MOL      K
 FUEL        CH4                        100.0000000    -77028.260    300.000
 OXIDANT     Air                        100.0000000     -2566.042    300.000

 O/F=   13.26040  %FUEL=  7.012425  R,EQ.RATIO= 1.299544  PHI,EQ.RATIO= 1.300000

 THERMODYNAMIC PROPERTIES

 P, BAR            10.899
 T, K             3000.00
 RHO, KG/CU M    1.1137 0
 H, KJ/KG         1567.66
 U, KJ/KG          589.06
 G, KJ/KG        -28955.7
 S, KJ/(KG)(K)    10.1745

 M, (1/n)          25.489
 (dLV/dLP)t      -1.00997
 (dLV/dLT)p        1.2138
 Cp, KJ/(KG)(K)    3.1376
 GAMMAs            1.1671
 SON VEL,M/SEC     1068.7

 MOLE FRACTIONS

 *Ar             7.6632-3
 *C              8.506-12
 *CH             2.626-12
 CH2             5.309-12
 CH3             1.088-11
 CH2OH           2.091-12
 CH3O            4.945-13
 CH4             3.085-12
 CH3OH           1.324-13
 *CN             1.5394-9
 CNN             1.425-15
 *CO             7.3447-2
 *CO2            3.8229-2
 COOH            4.1366-7
 C2H             3.647-16
 C2H2,acetylene  9.098-15
 CH2CO,ketene    1.245-13
 O(CH)2O         1.134-15
 HO(CO)2OH       3.555-16
 OCCN            1.272-13
 C2N2            2.010-15
 C2O             9.236-13
 C3O2            7.644-16
 *H              9.9876-3
 HCN             6.5923-8
 HCO             6.0961-7
 HCCO            6.795-14
 HNC             1.1479-8
 HNCO            7.1851-8
 HNO             1.5595-6
 HNO2            1.2806-7
 HNO3            5.249-12
 HO2             3.9296-6
 *H2             4.3466-2
 HCHO,formaldehy 1.4325-8
 HCOOH           5.0257-8
 H2O             1.6745-1
 H2O2            5.0414-7
 *N              3.3619-6
 NCO             1.3054-8
 *NH             1.1278-6
 NH2             5.4377-7
 NH3             5.4041-7
 NH2OH           1.690-10
 *NO             4.8896-3
 NO2             1.0730-6
 NO3             1.477-12
 *N2             6.3650-1
 N2O             8.4386-7
 NCN             1.278-13
 N2H2            7.305-11
 NH2NO2          4.213-16
 N2H4            2.527-15
 N2O3            7.049-14
 N3              2.426-11
 N3H             8.247-12
 *O              1.7897-3
 *OH             1.3842-2
 *O2             2.7266-3
 O3              6.322-10

  * THERMODYNAMIC PROPERTIES FITTED TO 20000.K

