*******************************************************************************

         NASA-GLENN CHEMICAL EQUILIBRIUM PROGRAM CEA2, FEBRUARY 5, 2004
                   BY  BONNIE MCBRIDE AND SANFORD GORDON
      REFS: NASA RP-1311, PART I, 1994 AND NASA RP-1311, PART II, 1996

 *******************************************************************************



  
 ### CEA analysis performed on Mon 11-Jul-2022 12:52:16
  
 # Problem Type: "Assigned Temperature and Volume (or Density)"
  
 prob case=test___________5469 tv
  
 # Temperature (1 value):
 t,k= 3000
 # Density (1 value):
 rho,kg/m**3= 1.1095
  
 # Equivalence based on Fuel/Oxid. wt ratio (Eq 9.19*) (1 value):
 phi= 1.4
  
 # You selected the following fuels and oxidizers:
 reac
 fuel CH4              mole=100.0000  t,k= 300.000
 oxid Air              mole=100.0000  t,k= 300.000
  
 # You selected these options for output:
 # short version of output
 output short
 # Proportions of any products will be expressed as Mole Fractions.
 # Heat will be expressed as siunits
 output siunits
 # Trace variable:
 output trace=1e-16
  
 # Input prepared by this script:/var/www/sites/cearun.grc.nasa.gov/cgi-bin/CEARU
 N/prepareInputFile.cgi
  
 ### IMPORTANT:  The following line is the end of your CEA input file!
 end




               THERMODYNAMIC EQUILIBRIUM PROPERTIES AT ASSIGNED

                            TEMPERATURE AND VOLUME

 CASE = test___________

             REACTANT                       MOLES         ENERGY      TEMP
                                                         KJ/KG-MOL      K
 FUEL        CH4                        100.0000000    -77028.260    300.000
 OXIDANT     Air                        100.0000000     -2566.042    300.000

 O/F=   12.31323  %FUEL=  7.511325  R,EQ.RATIO= 1.399392  PHI,EQ.RATIO= 1.400000

 THERMODYNAMIC PROPERTIES

 P, BAR            11.052
 T, K             3000.00
 RHO, KG/CU M    1.1095 0
 H, KJ/KG         1631.42
 U, KJ/KG          635.27
 G, KJ/KG        -29283.5
 S, KJ/(KG)(K)    10.3050

 M, (1/n)          25.040
 (dLV/dLP)t      -1.00874
 (dLV/dLT)p        1.1856
 Cp, KJ/(KG)(K)    2.9678
 GAMMAs            1.1744
 SON VEL,M/SEC     1081.6

 MOLE FRACTIONS

 *Ar             7.4878-3
 *C              1.312-11
 *CH             4.691-12
 CH2             1.098-11
 CH3             2.606-11
 CH2OH           3.742-12
 CH3O            8.848-13
 CH4             8.560-12
 CH3OH           2.744-13
 *CN             2.3649-9
 CNN             2.180-15
 *CO             8.4607-2
 *CO2            3.2887-2
 COOH            4.1212-7
 C2H             1.019-15
 C2H2,acetylene  2.945-14
 CH2CO,ketene    3.010-13
 O(CH)2O         2.047-15
 HO(CO)2OH       3.578-16
 CH3CO,acetyl    1.034-16
 OCCN            2.282-13
 C2N2            4.810-15
 C2O             1.664-12
 C3O2            1.609-15
 *H              1.1406-2
 HCN             1.1728-7
 HCO             8.1327-7
 HCCO            1.418-13
 HNC             2.0423-8
 HNCO            9.5463-8
 HNO             1.3245-6
 HNO2            8.1223-8
 HNO3            2.486-12
 HO2             2.5027-6
 *H2             5.7486-2
 HCHO,formaldehy 2.2132-8
 HCOOH           5.7986-8
 H2O             1.6538-1
 H2O2            3.7184-7
 *N              3.3016-6
 NCO             1.4976-8
 *NH             1.2827-6
 NH2             7.1623-7
 NH3             8.2435-7
 NH2OH           1.926-10
 *NO             3.5860-3
 NO2             5.8768-7
 NO3             6.040-13
 *N2             6.2252-1
 N2O             6.1635-7
 NCN             1.955-13
 N2H2            9.582-11
 NH2NO2          3.082-16
 N2H4            4.446-15
 N2O3            2.871-14
 N3              2.363-11
 N3H             9.303-12
 *O              1.3180-3
 *OH             1.1805-2
 *O2             1.4994-3
 O3              2.596-10

  * THERMODYNAMIC PROPERTIES FITTED TO 20000.K

