 *******************************************************************************

         NASA-GLENN CHEMICAL EQUILIBRIUM PROGRAM CEA2, FEBRUARY 5, 2004
                   BY  BONNIE MCBRIDE AND SANFORD GORDON
      REFS: NASA RP-1311, PART I, 1994 AND NASA RP-1311, PART II, 1996

 *******************************************************************************



  
 ### CEA analysis performed on Mon 11-Jul-2022 13:02:38
  
 # Problem Type: "Assigned Temperature and Volume (or Density)"
  
 prob case=test___________5469 tv
  
 # Temperature (1 value):
 t,k= 3000
 # Density (1 value):
 rho,kg/m**3= 1.0576
  
 # Equivalence based on Fuel/Oxid. wt ratio (Eq 9.19*) (1 value):
 phi= 2.8
  
 # You selected the following fuels and oxidizers:
 reac
 fuel CH4              mole=100.0000  t,k= 300.000
 oxid Air              mole=100.0000  t,k= 300.000
  
 # You selected these options for output:
 # short version of output
 output short
 # Proportions of any products will be expressed as Mole Fractions.
 # Heat will be expressed as siunits
 output siunits
 # Trace variable:
 output trace=1e-16
  
 # Input prepared by this script:/var/www/sites/cearun.grc.nasa.gov/cgi-bin/CEARU
 N/prepareInputFile.cgi
  
 ### IMPORTANT:  The following line is the end of your CEA input file!
 end




               THERMODYNAMIC EQUILIBRIUM PROPERTIES AT ASSIGNED

                            TEMPERATURE AND VOLUME

 CASE = test___________

             REACTANT                       MOLES         ENERGY      TEMP
                                                         KJ/KG-MOL      K
 FUEL        CH4                        100.0000000    -77028.260    300.000
 OXIDANT     Air                        100.0000000     -2566.042    300.000

 O/F=    6.15662  %FUEL= 13.973086  R,EQ.RATIO= 2.797263  PHI,EQ.RATIO= 2.800000

 THERMODYNAMIC PROPERTIES

 P, BAR            13.252
 T, K             3000.00
 RHO, KG/CU M    1.0576 0
 H, KJ/KG         3093.38
 U, KJ/KG         1840.36
 G, KJ/KG        -33014.6
 S, KJ/(KG)(K)    12.0360

 M, (1/n)          19.907
 (dLV/dLP)t      -1.00624
 (dLV/dLT)p        1.1176
 Cp, KJ/(KG)(K)    2.8489
 GAMMAs            1.2149
 SON VEL,M/SEC     1233.8

 MOLE FRACTIONS

 *Ar             5.5369-3
 *C              3.019-10
 *CH             2.552-10
 CH2             1.4128-9
 CH3             7.9240-9
 CH2OH           9.815-11
 CH3O            2.321-11
 CH4             6.1543-9
 CH3OH           1.702-11
 *CN             5.1304-8
 CNN             4.459-14
 *CO             1.6793-1
 *CO2            5.6308-3
 COOH            1.6683-7
 *C2             1.469-14
 C2H             1.530-12
 C2H2,acetylene  1.045-10
 C2H2,vinylidene 3.296-13
 CH2CO,ketene    9.212-11
 O(CH)2O         5.405-14
 C2H3,vinyl      4.960-14
 CH3CN           5.266-14
 CH3CO,acetyl    7.484-14
 C2H4            6.300-14
 CH3CHO,ethanal  4.101-15
 CH3COOH         1.792-16
 CNC             9.202-15
 OCCN            1.178-11
 C2N2            2.714-12
 C2O             9.113-11
 C3O2            2.097-13
 *H              2.2490-2
 HCN             6.0155-6
 HCO             3.8164-6
 HCCN            2.862-16
 HCCO            1.836-11
 HNC             1.0475-6
 HNCO            4.2237-7
 HNO             2.1242-7
 HNO2            1.1236-9
 HNO3            2.967-15
 HO2             3.6722-8
 *H2             2.6799-1
 HCHO,formaldehy 2.4555-7
 HCOOH           5.5497-8
 H2O             6.6509-2
 H2O2            1.2899-8
 *N              2.5962-6
 NCO             2.8025-8
 *NH             2.3846-6
 NH2             3.1481-6
 NH3             8.5665-6
 NH2OH           1.726-10
 *NO             2.4324-4
 NO2             3.4387-9
 NO3             3.049-16
 *N2             4.6152-1
 N2O             3.9417-8
 NCN             3.998-12
 N2H2            3.971-10
 N2H4            1.030-13
 N3              1.652-11
 N3H             1.537-11
 *O              9.4820-5
 *OH             2.0080-3
 *O2             9.3056-6
 O3              1.390-13

  * THERMODYNAMIC PROPERTIES FITTED TO 20000.K



