*******************************************************************************

         NASA-GLENN CHEMICAL EQUILIBRIUM PROGRAM CEA2, FEBRUARY 5, 2004
                   BY  BONNIE MCBRIDE AND SANFORD GORDON
      REFS: NASA RP-1311, PART I, 1994 AND NASA RP-1311, PART II, 1996

 *******************************************************************************



  
 ### CEA analysis performed on Mon 11-Jul-2022 12:54:24
  
 # Problem Type: "Assigned Temperature and Volume (or Density)"
  
 prob case=test___________5469 tv
  
 # Temperature (1 value):
 t,k= 3000
 # Density (1 value):
 rho,kg/m**3= 1.0973
  
 # Equivalence based on Fuel/Oxid. wt ratio (Eq 9.19*) (1 value):
 phi= 1.7
  
 # You selected the following fuels and oxidizers:
 reac
 fuel CH4              mole=100.0000  t,k= 300.000
 oxid Air              mole=100.0000  t,k= 300.000
  
 # You selected these options for output:
 # short version of output
 output short
 # Proportions of any products will be expressed as Mole Fractions.
 # Heat will be expressed as siunits
 output siunits
 # Trace variable:
 output trace=1e-16
  
 # Input prepared by this script:/var/www/sites/cearun.grc.nasa.gov/cgi-bin/CEARU
 N/prepareInputFile.cgi
  
 ### IMPORTANT:  The following line is the end of your CEA input file!
 end




               THERMODYNAMIC EQUILIBRIUM PROPERTIES AT ASSIGNED

                            TEMPERATURE AND VOLUME

 CASE = test___________

             REACTANT                       MOLES         ENERGY      TEMP
                                                         KJ/KG-MOL      K
 FUEL        CH4                        100.0000000    -77028.260    300.000
 OXIDANT     Air                        100.0000000     -2566.042    300.000

 O/F=   10.14031  %FUEL=  8.976413  R,EQ.RATIO= 1.698936  PHI,EQ.RATIO= 1.700000

 THERMODYNAMIC PROPERTIES

 P, BAR            11.546
 T, K             3000.00
 RHO, KG/CU M    1.0973 0
 H, KJ/KG         1915.54
 U, KJ/KG          863.33
 G, KJ/KG        -30198.9
 S, KJ/(KG)(K)    10.7048

 M, (1/n)          23.706
 (dLV/dLP)t      -1.00691
 (dLV/dLT)p        1.1409
 Cp, KJ/(KG)(K)    2.7243
 GAMMAs            1.1914
 SON VEL,M/SEC     1119.7

 MOLE FRACTIONS

 *Ar             6.9766-3
 *C              3.567-11
 *CH             1.769-11
 CH2             5.745-11
 CH3             1.890-10
 CH2OH           1.319-11
 CH3O            3.119-12
 CH4             8.613-11
 CH3OH           1.342-12
 *CN             6.3466-9
 CNN             5.776-15
 *CO             1.1177-1
 *CO2            2.1113-2
 COOH            3.6698-7
 *C2             1.786-16
 C2H             1.091-14
 C2H2,acetylene  4.373-13
 C2H2,vinylidene 1.379-15
 CH2CO,ketene    2.172-12
 O(CH)2O         7.179-15
 HO(CO)2OH       2.964-16
 C2H3,vinyl      1.218-16
 CH3CN           1.354-16
 CH3CO,acetyl    1.035-15
 CNC             1.172-16
 OCCN            8.453-13
 C2N2            3.619-14
 C2O             6.243-12
 C3O2            8.330-15
 *H              1.5145-2
 HCN             4.3659-7
 HCO             1.4902-6
 HCCO            7.378-13
 HNC             7.6023-8
 HNCO            1.7270-7
 HNO             8.4384-7
 HNO2            2.5148-8
 HNO3            3.741-13
 HO2             7.8483-7
 *H2             1.0587-1
 HCHO,formaldehy 5.6250-8
 HCOOH           7.1622-8
 H2O             1.4803-1
 H2O2            1.6174-7
 *N              3.1204-6
 NCO             1.9532-8
 *NH             1.6815-6
 NH2             1.3023-6
 NH3             2.0791-6
 NH2OH           2.360-10
 *NO             1.6470-3
 NO2             1.3118-7
 NO3             6.552-14
 *N2             5.8087-1
 N2O             2.7949-7
 NCN             5.180-13
 N2H2            1.720-10
 NH2NO2          1.307-16
 N2H4            1.536-14
 N2O3            3.075-15
 N3              2.177-11
 N3H             1.189-11
 *O              6.1313-4
 *OH             7.6177-3
 *O2             3.3899-4
 O3              2.853-11

  * THERMODYNAMIC PROPERTIES FITTED TO 20000.K




