*******************************************************************************

         NASA-GLENN CHEMICAL EQUILIBRIUM PROGRAM CEA2, FEBRUARY 5, 2004
                   BY  BONNIE MCBRIDE AND SANFORD GORDON
      REFS: NASA RP-1311, PART I, 1994 AND NASA RP-1311, PART II, 1996

 *******************************************************************************



  
 ### CEA analysis performed on Mon 11-Jul-2022 13:04:20
  
 # Problem Type: "Assigned Temperature and Volume (or Density)"
  
 prob case=test___________5469 tv
  
 # Temperature (1 value):
 t,k= 3000
 # Density (1 value):
 rho,kg/m**3= 1.0448
  
 # Equivalence based on Fuel/Oxid. wt ratio (Eq 9.19*) (1 value):
 phi= 3.2
  
 # You selected the following fuels and oxidizers:
 reac
 fuel CH4              mole=100.0000  t,k= 300.000
 oxid Air              mole=100.0000  t,k= 300.000
  
 # You selected these options for output:
 # short version of output
 output short
 # Proportions of any products will be expressed as Mole Fractions.
 # Heat will be expressed as siunits
 output siunits
 # Trace variable:
 output trace=1e-16
  
 # Input prepared by this script:/var/www/sites/cearun.grc.nasa.gov/cgi-bin/CEARU
 N/prepareInputFile.cgi
  
 ### IMPORTANT:  The following line is the end of your CEA input file!
 end




               THERMODYNAMIC EQUILIBRIUM PROPERTIES AT ASSIGNED

                            TEMPERATURE AND VOLUME

 CASE = test___________

             REACTANT                       MOLES         ENERGY      TEMP
                                                         KJ/KG-MOL      K
 FUEL        CH4                        100.0000000    -77028.260    300.000
 OXIDANT     Air                        100.0000000     -2566.042    300.000

 O/F=    5.38704  %FUEL= 15.656709  R,EQ.RATIO= 3.196655  PHI,EQ.RATIO= 3.200000

 THERMODYNAMIC PROPERTIES

 P, BAR            13.803
 T, K             3000.00
 RHO, KG/CU M    1.0448 0
 H, KJ/KG         3500.12
 U, KJ/KG         2179.00
 G, KJ/KG        -33890.7
 S, KJ/(KG)(K)    12.4636

 M, (1/n)          18.881
 (dLV/dLP)t      -1.00630
 (dLV/dLT)p        1.1171
 Cp, KJ/(KG)(K)    2.9554
 GAMMAs            1.2190
 SON VEL,M/SEC     1269.0

 MOLE FRACTIONS

 *Ar             5.1487-3
 *C              6.093-10
 *CH             5.692-10
 CH2             3.4831-9
 CH3             2.1592-8
 CH2OH           1.430-10
 CH3O            3.381-11
 CH4             1.8535-8
 CH3OH           2.740-11
 *CN             1.0191-7
 CNN             8.717-14
 *CO             1.8117-1
 *CO2            3.2472-3
 COOH            1.0633-7
 *C2             6.233-14
 C2H             7.173-12
 C2H2,acetylene  5.415-10
 C2H2,vinylidene 1.708-12
 CH2CO,ketene    2.552-10
 O(CH)2O         8.004-14
 C2H3,vinyl      2.841-13
 CH3CN           2.969-13
 CH3CO,acetyl    2.292-13
 C2H4            3.989-13
 CH3CHO,ethanal  1.388-14
 CH3COOH         3.242-16
 C2H5            3.678-16
 CCN             3.916-16
 CNC             3.843-14
 OCCN            2.630-11
 C2N2            1.115-11
 C2O             2.067-10
 *C3             1.037-16
 C3H3,2-propynl  2.114-16
 C3O2            5.344-13
 *H              2.3865-2
 HCN             1.3207-5
 HCO             4.5507-6
 HCCN            1.321-15
 HCCO            4.602-11
 HNC             2.2997-6
 HNCO            4.9567-7
 HNO             1.1858-7
 HNO2            3.353-10
 HNO3            4.732-16
 HO2             1.1134-8
 *H2             3.1430-1
 HCHO,formaldehy 3.2360-7
 HCOOH           3.9095-8
 H2O             4.1695-2
 H2O2            4.3226-9
 *N              2.4532-6
 NCO             2.9757-8
 *NH             2.4904-6
 NH2             3.6338-6
 NH3             1.0929-5
 NH2OH           1.177-10
 *NO             1.2286-4
 NO2             9.284-10
 *N2             4.2921-1
 N2O             1.9595-8
 NCN             7.817-12
 N2H2            4.511-10
 N2H4            1.429-13
 N3              1.512-11
 N3H             1.555-11
 *O              4.8661-5
 *OH             1.1390-3
 *O2             2.5527-6
 O3              2.038-14

  * THERMODYNAMIC PROPERTIES FITTED TO 20000.K


