
 *******************************************************************************

         NASA-GLENN CHEMICAL EQUILIBRIUM PROGRAM CEA2, MAY 21, 2004
                   BY  BONNIE MCBRIDE AND SANFORD GORDON
      REFS: NASA RP-1311, PART I, 1994 AND NASA RP-1311, PART II, 1996

 *******************************************************************************



 problem    phi,eq.ratio=2.1,2.2,2.3,2.4,2.5,2.6,2.7,2.8,2.9,3,3.1,3.2,3.3,3.4,3.
 5,3.6,
       tp   t,k=2500,  p,bar=1,
 react
   fuel=C6H6 moles=1 t,k=300
   oxid=O2 moles=7.5 t,k=300
   oxid=N2 moles=28.2143 t,k=300
 output
      trace=1e-16 siunits short
 end




               THERMODYNAMIC EQUILIBRIUM PROPERTIES AT ASSIGNED

                           TEMPERATURE AND PRESSURE

 CASE =                

             REACTANT                       MOLES         ENERGY      TEMP
                                                         KJ/KG-MOL      K
 FUEL        C6H6                         1.0000000     83032.119    300.000
 OXIDANT     O2                           7.5000000        54.358    300.000
 OXIDANT     N2                          28.2143000        53.881    300.000

 O/F=    6.28141  %FUEL= 13.733613  R,EQ.RATIO= 2.100000  PHI,EQ.RATIO= 2.100000

 THERMODYNAMIC PROPERTIES

 P, BAR            1.0000
 T, K             2500.00
 RHO, KG/CU M    1.2144-1
 H, KJ/KG         1390.35
 U, KJ/KG          566.90
 G, KJ/KG        -24927.8
 S, KJ/(KG)(K)    10.5273

 M, (1/n)          25.243
 (dLV/dLP)t      -1.00213
 (dLV/dLT)p        1.0479
 Cp, KJ/(KG)(K)    1.8477
 GAMMAs            1.2401
 SON VEL,M/SEC     1010.5

 MOLE FRACTIONS

 *C              2.743-12
 *CH             1.016-12
 CH2             5.054-12
 CH3             3.294-11
 CH2OH           3.065-13
 CH3O            4.982-14
 CH4             2.268-11
 CH3OH           3.770-14
 *CN             1.4202-9
 *CO             2.5125-1
 *CO2            1.5043-2
 COOH            1.7379-8
 C2H             1.657-15
 C2H2,acetylene  2.782-13
 C2H2,vinylidene 2.169-16
 CH2CO,ketene    4.632-13
 O(CH)2O         1.846-16
 OCCN            8.482-14
 C2N2            1.259-14
 C2O             1.092-12
 C3O2            2.222-15
 *H              7.7244-3
 HCN             3.0431-7
 HCO             2.7388-7
 HCCO            9.179-14
 HNC             3.2370-8
 HNCO            3.2098-8
 HNO             1.1873-8
 HNO2            5.297-11
 HO2             2.9001-9
 *H2             9.4068-2
 HCHO,formaldehy 9.6210-9
 HCOOH           3.2723-9
 H2O             3.4888-2
 H2O2            5.460-10
 *N              2.2545-7
 NCO             1.6900-9
 *NH             9.1250-8
 NH2             7.7881-8
 NH3             2.3339-7
 NH2OH           8.464-13
 *NO             9.6137-5
 NO2             4.144-10
 *N2             5.9624-1
 NCN             1.890-14
 N2H2            2.247-12
 N2O             4.6598-9
 N3              1.851-13
 N3H             8.871-14
 *O              3.1895-5
 *OH             6.5380-4
 *O2             4.8507-6
 O3              3.907-15

  * THERMODYNAMIC PROPERTIES FITTED TO 20000.K









               THERMODYNAMIC EQUILIBRIUM PROPERTIES AT ASSIGNED

                           TEMPERATURE AND PRESSURE

 CASE =                

             REACTANT                       MOLES         ENERGY      TEMP
                                                         KJ/KG-MOL      K
 FUEL        C6H6                         1.0000000     83032.119    300.000
 OXIDANT     O2                           7.5000000        54.358    300.000
 OXIDANT     N2                          28.2143000        53.881    300.000

 O/F=    5.99589  %FUEL= 14.294113  R,EQ.RATIO= 2.200000  PHI,EQ.RATIO= 2.200000

 THERMODYNAMIC PROPERTIES

 P, BAR            1.0000
 T, K             2500.00
 RHO, KG/CU M    1.1993-1
 H, KJ/KG         1494.34
 U, KJ/KG          660.52
 G, KJ/KG        -25028.4
 S, KJ/(KG)(K)    10.6091

 M, (1/n)          24.929
 (dLV/dLP)t      -1.00218
 (dLV/dLT)p        1.0487
 Cp, KJ/(KG)(K)    1.8603
 GAMMAs            1.2422
 SON VEL,M/SEC     1017.7

 MOLE FRACTIONS

 *C              4.311-12
 *CH             1.698-12
 CH2             8.972-12
 CH3             6.215-11
 CH2OH           3.855-13
 CH3O            6.265-14
 CH4             4.547-11
 CH3OH           5.038-14
 *CN             2.2108-9
 CNN             1.116-16
 *CO             2.6321-1
 *CO2            1.0505-2
 COOH            1.2898-8
 C2H             4.348-15
 C2H2,acetylene  7.760-13
 C2H2,vinylidene 6.051-16
 CH2CO,ketene    8.614-13
 O(CH)2O         2.288-16
 OCCN            1.383-13
 C2N2            3.051-14
 C2O             1.798-12
 C3O2            3.833-15
 *H              8.2093-3
 HCN             5.0345-7
 HCO             3.0493-7
 HCCO            1.606-13
 HNC             5.3555-8
 HNCO            3.5398-8
 HNO             8.3318-9
 HNO2            2.478-11
 HO2             1.3695-9
 *H2             1.0625-1
 HCHO,formaldehy 1.1384-8
 HCOOH           2.5810-9
 H2O             2.6268-2
 H2O2            2.740-10
 *N              2.2331-7
 NCO             1.7536-9
 *NH             9.6061-8
 NH2             8.7135-8
 NH3             2.7752-7
 NH2OH           6.709-13
 *NO             6.3478-5
 NO2             1.824-10
 *N2             5.8501-1
 NCN             2.915-14
 N2H2            2.490-12
 N2O             3.0476-9
 N3              1.799-13
 N3H             9.163-14
 *O              2.1261-5
 *OH             4.6318-4
 *O2             2.1554-6
 O3              1.157-15

  * THERMODYNAMIC PROPERTIES FITTED TO 20000.K









               THERMODYNAMIC EQUILIBRIUM PROPERTIES AT ASSIGNED

                           TEMPERATURE AND PRESSURE

 CASE =                

             REACTANT                       MOLES         ENERGY      TEMP
                                                         KJ/KG-MOL      K
 FUEL        C6H6                         1.0000000     83032.119    300.000
 OXIDANT     O2                           7.5000000        54.358    300.000
 OXIDANT     N2                          28.2143000        53.881    300.000

 O/F=    5.73520  %FUEL= 14.847377  R,EQ.RATIO= 2.300000  PHI,EQ.RATIO= 2.300000

 THERMODYNAMIC PROPERTIES

 P, BAR            1.0000
 T, K             2500.00
 RHO, KG/CU M    1.1847-1
 H, KJ/KG         1596.80
 U, KJ/KG          752.72
 G, KJ/KG        -25122.1
 S, KJ/(KG)(K)    10.6875

 M, (1/n)          24.626
 (dLV/dLP)t      -1.00223
 (dLV/dLT)p        1.0496
 Cp, KJ/(KG)(K)    1.8744
 GAMMAs            1.2441
 SON VEL,M/SEC     1024.7

 MOLE FRACTIONS

 *C              7.505-12
 *CH             3.120-12
 CH2             1.741-11
 CH3             1.273-10
 CH2OH           4.727-13
 CH3O            7.683-14
 CH4             9.834-11
 CH3OH           6.523-14
 *CN             3.8132-9
 CNN             1.907-16
 *CO             2.7430-1
 *CO2            6.5533-3
 COOH            8.4947-9
 C2H             1.391-14
 C2H2,acetylene  2.621-12
 C2H2,vinylidene 2.044-15
 CH2CO,ketene    1.742-12
 O(CH)2O         2.769-16
 C2H3,vinyl      1.394-16
 CH3CN           2.727-16
 CH3CO,acetyl    1.816-16
 C2H4            2.295-16
 OCCN            2.486-13
 C2N2            9.075-14
 C2O             3.262-12
 C3O2            7.247-15
 *H              8.6667-3
 HCN             9.1672-7
 HCO             3.3548-7
 HCCO            3.076-13
 HNC             9.7516-8
 HNCO            3.8583-8
 HNO             5.2165-9
 HNO2            9.287-12
 HO2             5.181-10
 *H2             1.1842-1
 HCHO,formaldehy 1.3223-8
 HCOOH           1.7946-9
 H2O             1.7525-2
 H2O2            1.094-10
 *N              2.2124-7
 NCO             1.8106-9
 *NH             1.0047-7
 NH2             9.6213-8
 NH3             3.2351-7
 NH2OH           4.681-13
 *NO             3.7645-5
 NO2             6.475-11
 *N2             5.7419-1
 NCN             4.981-14
 N2H2            2.724-12
 N2O             1.7906-9
 N3              1.749-13
 N3H             9.406-14
 *O              1.2727-5
 *OH             2.9271-4
 *O2             7.7233-7
 O3              2.482-16

  * THERMODYNAMIC PROPERTIES FITTED TO 20000.K









               THERMODYNAMIC EQUILIBRIUM PROPERTIES AT ASSIGNED

                           TEMPERATURE AND PRESSURE

 CASE =                

             REACTANT                       MOLES         ENERGY      TEMP
                                                         KJ/KG-MOL      K
 FUEL        C6H6                         1.0000000     83032.119    300.000
 OXIDANT     O2                           7.5000000        54.358    300.000
 OXIDANT     N2                          28.2143000        53.881    300.000

 O/F=    5.49623  %FUEL= 15.393544  R,EQ.RATIO= 2.400000  PHI,EQ.RATIO= 2.400000

 THERMODYNAMIC PROPERTIES

 P, BAR            1.0000
 T, K             2500.00
 RHO, KG/CU M    1.1707-1
 H, KJ/KG         1697.75
 U, KJ/KG          843.55
 G, KJ/KG        -25207.1
 S, KJ/(KG)(K)    10.7620

 M, (1/n)          24.334
 (dLV/dLP)t      -1.00229
 (dLV/dLT)p        1.0505
 Cp, KJ/(KG)(K)    1.8896
 GAMMAs            1.2457
 SON VEL,M/SEC     1031.5

 MOLE FRACTIONS

 *C              1.719-11
 *CH             7.503-12
 CH2             4.395-11
 CH3             3.374-10
 CH2OH           5.674-13
 CH3O            9.223-14
 CH4             2.736-10
 CH3OH           8.220-14
 *CN             8.6556-9
 CNN             4.290-16
 *CO             2.8465-1
 *CO2            3.0807-3
 COOH            4.1920-9
 *C2             4.813-16
 C2H             7.665-14
 C2H2,acetylene  1.516-11
 C2H2,vinylidene 1.182-14
 CH2CO,ketene    4.563-12
 O(CH)2O         3.286-16
 C2H3,vinyl      8.465-16
 CH3CN           1.641-15
 CH3CO,acetyl    4.996-16
 C2H4            1.462-15
 CNC             2.778-16
 OCCN            5.857-13
 C2N2            4.676-13
 C2O             7.754-12
 C3O2            1.788-14
 *H              9.0980-3
 HCN             2.1844-6
 HCO             3.6547-7
 HCCO            7.677-13
 HNC             2.3237-7
 HNCO            4.1648-8
 HNO             2.4580-9
 HNO2            1.982-12
 HO2             1.116-10
 *H2             1.3050-1
 HCHO,formaldehy 1.5121-8
 HCOOH           9.297-10
 H2O             8.7485-3
 H2O2            2.475-11
 *N              2.1922-7
 NCO             1.8618-9
 *NH             1.0451-7
 NH2             1.0506-7
 NH3             3.7082-7
 NH2OH           2.431-13
 *NO             1.6898-5
 NO2             1.317-11
 *N2             5.6376-1
 NCN             1.120-13
 N2H2            2.947-12
 N2O             7.964-10
 N3              1.702-13
 N3H             9.606-14
 *O              5.7653-6
 *OH             1.3920-4
 *O2             1.5849-7

  * THERMODYNAMIC PROPERTIES FITTED TO 20000.K









               THERMODYNAMIC EQUILIBRIUM PROPERTIES AT ASSIGNED

                           TEMPERATURE AND PRESSURE

 CASE =                

             REACTANT                       MOLES         ENERGY      TEMP
                                                         KJ/KG-MOL      K
 FUEL        C6H6                         1.0000000     83032.119    300.000
 OXIDANT     O2                           7.5000000        54.358    300.000
 OXIDANT     N2                          28.2143000        53.881    300.000

 O/F=    5.27638  %FUEL= 15.932750  R,EQ.RATIO= 2.500000  PHI,EQ.RATIO= 2.500000

 THERMODYNAMIC PROPERTIES

 P, BAR            1.0000
 T, K             2500.00
 RHO, KG/CU M    1.1574-1
 H, KJ/KG         1797.20
 U, KJ/KG          933.17
 G, KJ/KG        -25275.5
 S, KJ/(KG)(K)    10.8291

 M, (1/n)          24.057
 (dLV/dLP)t      -1.00244
 (dLV/dLT)p        1.0515
 Cp, KJ/(KG)(K)    1.9055
 GAMMAs            1.2471
 SON VEL,M/SEC     1038.0

 MOLE FRACTIONS

 *C              1.2519-9
 *CH             5.704-10
 CH2             3.4877-9
 CH3             2.7953-8
 CH2OH           6.673-13
 CH3O            1.085-13
 CH4             2.3663-8
 CH3OH           1.009-13
 *CN             6.2460-7
 CNN             3.068-14
 *CO             2.9420-1
 *CO2            4.5194-5
 COOH            6.420-11
 *C2             2.552-12
 C2H             4.243-10
 C2H2,acetylene  8.7597-8
 C2H2,vinylidene 6.830-11
 CH2CO,ketene    3.743-10
 O(CH)2O         3.826-16
 C2H3,vinyl      5.107-12
 CH3CN           9.809-12
 CH3CO,acetyl    4.278-14
 C2H4            9.210-12
 CH3CHO,ethanal  1.730-15
 C2H5            9.171-16
 C2H6            1.262-16
 CCN             5.790-15
 CNC             1.459-12
 OCCN            4.368-11
 C2N2            2.4349-9
 C2O             5.835-10
 *C3             2.124-13
 C3H3,2-propynl  1.286-13
 C3H4,allene     1.498-15
 C3H4,propyne    3.386-15
 C3O2            1.391-12
 C4H2,butadiyne  2.214-14
 C4N2            5.101-16
 *H              9.4982-3
 HCN             1.6457-4
 HCO             3.9434-7
 HCCN            1.574-14
 HCCO            6.032-11
 HNC             1.7506-5
 HNCO            4.4536-8
 HNO             3.610-11
 HNO2            4.132-16
 HO2             2.348-14
 *H2             1.4223-1
 HCHO,formaldehy 1.7034-8
 HCOOH           1.486-11
 H2O             1.3535-4
 H2O2            5.435-15
 *N              2.1726-7
 NCO             1.9070-9
 *NH             1.0813-7
 NH2             1.1348-7
 NH3             4.1818-7
 NH2OH           3.891-15
 *NO             2.3770-7
 NO2             2.629-15
 *N2             5.5371-1
 NCN             8.012-12
 N2H2            3.155-12
 N2O             1.110-11
 N3              1.656-13
 N3H             9.762-14
 *O              8.1834-8
 *OH             2.0627-6
 *O2             3.193-11

  * THERMODYNAMIC PROPERTIES FITTED TO 20000.K









               THERMODYNAMIC EQUILIBRIUM PROPERTIES AT ASSIGNED

                           TEMPERATURE AND PRESSURE

 CASE =                

             REACTANT                       MOLES         ENERGY      TEMP
                                                         KJ/KG-MOL      K
 FUEL        C6H6                         1.0000000     83032.119    300.000
 OXIDANT     O2                           7.5000000        54.358    300.000
 OXIDANT     N2                          28.2143000        53.881    300.000

 O/F=    5.07344  %FUEL= 16.465126  R,EQ.RATIO= 2.600000  PHI,EQ.RATIO= 2.600000

 THERMODYNAMIC PROPERTIES

 P, BAR            1.0000
 T, K             2500.00
 RHO, KG/CU M    1.1577-1
 H, KJ/KG         1891.76
 U, KJ/KG         1027.97
 G, KJ/KG        -25277.9
 S, KJ/(KG)(K)    10.8679

 M, (1/n)          24.064
 (dLV/dLP)t      -1.00235
 (dLV/dLT)p        1.0517
 Cp, KJ/(KG)(K)    1.9214
 GAMMAs            1.2446
 SON VEL,M/SEC     1036.9

 MOLE FRACTIONS

 *C              7.6375-8
 *CH             3.4720-8
 CH2             2.1183-7
 CH3             1.6940-6
 CH2OH           6.593-13
 CH3O            1.072-13
 CH4             1.4308-6
 CH3OH           9.949-14
 *CN             3.7802-5
 CNN             1.842-12
 *CO             2.9263-1
 *CO2            7.3294-7
 COOH            1.039-12
 *C2             9.4974-9
 C2H             1.5757-6
 C2H2,acetylene  3.2459-4
 C2H2,vinylidene 2.5310-7
 CH2CO,ketene    2.2613-8
 O(CH)2O         3.769-16
 C2H3,vinyl      1.8881-8
 CH3CN           3.5977-8
 CH3CO,acetyl    2.579-12
 C2H4            3.3975-8
 CH3CHO,ethanal  1.040-13
 C2H5            3.376-12
 C2H6            4.634-13
 CCN             2.138-11
 CNC             5.3889-9
 OCCN            2.6297-9
 C2N2            8.9190-6
 C2O             3.5410-8
 *C3             4.8224-8
 C3H3,1-propynl  2.038-11
 C3H3,2-propynl  2.9010-8
 C3H4,allene     3.371-10
 C3H4,propyne    7.620-10
 C3H4,cyclo-     4.075-12
 C3H5,allyl      8.615-13
 C3H6,propylene  8.321-14
 C3H6,cyclo-     4.643-16
 CNCOCN          6.267-14
 C3O2            8.394-11
 *C4             1.357-11
 C4H2,butadiyne  3.0533-7
 C4H4,1,3-cyclo- 1.369-14
 C4H6,butadiene  4.513-15
 C4H6,1butyne    6.673-16
 C4H6,2butyne    3.880-16
 C4N2            6.9550-9
 *C5             3.008-11
 C6H2            3.022-10
 *H              9.4771-3
 HCN             9.9377-3
 HCO             3.9137-7
 HCCN            5.800-11
 HCCO            3.6522-9
 HNC             1.0571-3
 HNCO            4.3849-8
 HNO             5.826-13
 *H2             1.4160-1
 HCHO,formaldehy 1.6868-8
 HCOOH           2.400-13
 H2O             2.1969-6
 *N              2.1552-7
 NCO             1.8817-9
 *NH             1.0703-7
 NH2             1.1207-7
 NH3             4.1207-7
 *NO             3.8446-9
 *N2             5.4491-1
 NCN             4.810-10
 N2H2            3.091-12
 N2O             1.781-13
 N3              1.617-13
 N3H             9.509-14
 *O              1.3342-9
 *OH             3.3556-8
 *O2             8.488-15

  * THERMODYNAMIC PROPERTIES FITTED TO 20000.K









               THERMODYNAMIC EQUILIBRIUM PROPERTIES AT ASSIGNED

                           TEMPERATURE AND PRESSURE

 CASE =                

             REACTANT                       MOLES         ENERGY      TEMP
                                                         KJ/KG-MOL      K
 FUEL        C6H6                         1.0000000     83032.119    300.000
 OXIDANT     O2                           7.5000000        54.358    300.000
 OXIDANT     N2                          28.2143000        53.881    300.000

 O/F=    4.88554  %FUEL= 16.990802  R,EQ.RATIO= 2.700000  PHI,EQ.RATIO= 2.700000

 THERMODYNAMIC PROPERTIES

 P, BAR            1.0000
 T, K             2500.00
 RHO, KG/CU M    1.1582-1
 H, KJ/KG         1984.03
 U, KJ/KG         1120.62
 G, KJ/KG        -25267.2
 S, KJ/(KG)(K)    10.9005

 M, (1/n)          24.074
 (dLV/dLP)t      -1.00236
 (dLV/dLT)p        1.0518
 Cp, KJ/(KG)(K)    1.9375
 GAMMAs            1.2420
 SON VEL,M/SEC     1035.6

 MOLE FRACTIONS

 *C              1.4566-7
 *CH             6.6031-8
 CH2             4.0173-7
 CH3             3.2035-6
 CH2OH           6.499-13
 CH3O            1.056-13
 CH4             2.6982-6
 CH3OH           9.780-14
 *CN             7.1555-5
 CNN             3.460-12
 *CO             2.9092-1
 *CO2            3.7982-7
 COOH            5.369-13
 *C2             3.4546-8
 C2H             5.7151-6
 C2H2,acetylene  1.1740-3
 C2H2,vinylidene 9.1544-7
 CH2CO,ketene    4.2633-8
 O(CH)2O         3.704-16
 C2H3,vinyl      6.8096-8
 CH3CN           1.2879-7
 CH3CO,acetyl    4.848-12
 C2H4            1.2219-7
 CH3CHO,ethanal  1.951-13
 C2H5            1.211-11
 C2H6            1.657-12
 CCN             7.718-11
 CNC             1.9455-8
 OCCN            4.9487-9
 C2N2            3.1957-5
 C2O             6.7140-8
 *C3             3.3454-7
 C3H3,1-propynl  1.402-10
 C3H3,2-propynl  1.9955-7
 C3H4,allene     2.3124-9
 C3H4,propyne    5.2268-9
 C3H4,cyclo-     2.795-11
 C3H5,allyl      5.893-12
 C3H6,propylene  5.675-13
 C3H6,cyclo-     3.167-15
 CNCOCN          2.233-13
 C3O2            1.582-10
 *C4             1.796-10
 C4H2,butadiyne  4.0169-6
 C4H4,1,3-cyclo- 1.791-13
 C4H6,butadiene  5.871-14
 C4H6,1butyne    8.680-15
 C4H6,2butyne    5.048-15
 C4H6,cyclo-     1.902-16
 C4N2            9.0643-8
 *C5             7.590-10
 C5H6,1,3cyclo-  1.395-15
 C6H2            1.4460-8
 C6H5,phenyl     2.233-15
 C6H6            2.856-15
 *H              9.4503-3
 HCN             1.8758-2
 HCO             3.8799-7
 HCCN            2.088-10
 HCCO            6.9051-9
 HNC             1.9954-3
 HNCO            4.3143-8
 HNO             3.005-13
 *H2             1.4080-1
 HCHO,formaldehy 1.6675-8
 HCOOH           1.237-13
 H2O             1.1387-6
 *N              2.1391-7
 NCO             1.8567-9
 *NH             1.0593-7
 NH2             1.1061-7
 NH3             4.0553-7
 *NO             1.9890-9
 *N2             5.3677-1
 NCN             9.037-10
 N2H2            3.028-12
 N2O             9.147-14
 N3              1.581-13
 N3H             9.271-14
 *O              6.955-10
 *OH             1.7442-8
 *O2             2.306-15

  * THERMODYNAMIC PROPERTIES FITTED TO 20000.K









               THERMODYNAMIC EQUILIBRIUM PROPERTIES AT ASSIGNED

                           TEMPERATURE AND PRESSURE

 CASE =                

             REACTANT                       MOLES         ENERGY      TEMP
                                                         KJ/KG-MOL      K
 FUEL        C6H6                         1.0000000     83032.119    300.000
 OXIDANT     O2                           7.5000000        54.358    300.000
 OXIDANT     N2                          28.2143000        53.881    300.000

 O/F=    4.71105  %FUEL= 17.509903  R,EQ.RATIO= 2.800000  PHI,EQ.RATIO= 2.800000

 THERMODYNAMIC PROPERTIES

 P, BAR            1.0000
 T, K             2500.00
 RHO, KG/CU M    1.1586-1
 H, KJ/KG         2034.97
 U, KJ/KG         1171.90
 G, KJ/KG        -25252.7
 S, KJ/(KG)(K)    10.9151

 M, (1/n)          24.084
 MW, MOL WT        23.904
 (dLV/dLP)t      -1.00239
 (dLV/dLT)p        1.0513
 Cp, KJ/(KG)(K)    2.3211
 GAMMAs            1.1933
 SON VEL,M/SEC     1014.9

 MOLE FRACTIONS

 *C              1.6505-7
 *CH             7.5582-8
 CH2             4.6453-7
 CH3             3.7420-6
 CH2OH           6.611-13
 CH3O            1.075-13
 CH4             3.1838-6
 CH3OH           1.005-13
 *CN             8.0719-5
 CNN             3.886-12
 *CO             2.8705-1
 *CO2            3.2635-7
 COOH            4.660-13
 *C2             4.4688-8
 C2H             7.4684-6
 C2H2,acetylene  1.5498-3
 C2H2,vinylidene 1.2085-6
 CH2CO,ketene    4.9008-8
 O(CH)2O         3.708-16
 C2H3,vinyl      9.0809-8
 CH3CN           1.7098-7
 CH3CO,acetyl    5.629-12
 C2H4            1.6461-7
 CH3CHO,ethanal  2.288-13
 C2H5            1.647-11
 C2H6            2.278-12
 CCN             9.940-11
 CNC             2.5055-8
 OCCN            5.5497-9
 C2N2            4.0973-5
 C2O             7.5630-8
 *C3             4.9406-7
 C3H3,1-propynl  2.134-10
 C3H3,2-propynl  3.0380-7
 C3H4,allene     3.5563-9
 C3H4,propyne    8.0385-9
 C3H4,cyclo-     4.299-11
 C3H5,allyl      9.155-12
 C3H6,propylene  8.907-13
 C3H6,cyclo-     4.970-15
 CNCOCN          2.846-13
 C3O2            1.772-10
 *C4             3.028-10
 C4H2,butadiyne  6.9112-6
 C4H4,1,3-cyclo- 3.145-13
 C4H6,butadiene  1.052-13
 C4H6,1butyne    1.555-14
 C4H6,2butyne    9.044-15
 C4H6,cyclo-     3.409-16
 C4N2            1.5147-7
 *C5             1.4609-9
 C5H6,1,3cyclo-  2.854-15
 C6H2            3.2425-8
 C6H5,phenyl     5.161-15
 C6H6            6.670-15
 *H              9.4752-3
 HCN             2.1376-2
 HCO             3.8673-7
 HCCN            2.717-10
 HCCO            7.8576-9
 HNC             2.2738-3
 HNCO            4.2812-8
 HNO             2.612-13
 *H2             1.4261-1
 HCHO,formaldehy 1.6790-8
 HCOOH           1.084-13
 H2O             1.0043-6
 *N              2.1137-7
 NCO             1.8239-9
 *NH             1.0573-7
 NH2             1.1153-7
 NH3             4.1308-7
 *NO             1.7114-9
 *N2             5.2803-1
 NCN             1.0149-9
 N2H2            3.039-12
 N2O             7.836-14
 N3              1.548-13
 N3H             9.172-14
 *O              6.011-10
 *OH             1.5228-8
 *O2             1.736-15
 C(gr)           7.4791-3

  * THERMODYNAMIC PROPERTIES FITTED TO 20000.K









               THERMODYNAMIC EQUILIBRIUM PROPERTIES AT ASSIGNED

                           TEMPERATURE AND PRESSURE

 CASE =                

             REACTANT                       MOLES         ENERGY      TEMP
                                                         KJ/KG-MOL      K
 FUEL        C6H6                         1.0000000     83032.119    300.000
 OXIDANT     O2                           7.5000000        54.358    300.000
 OXIDANT     N2                          28.2143000        53.881    300.000

 O/F=    4.54860  %FUEL= 18.022552  R,EQ.RATIO= 2.900000  PHI,EQ.RATIO= 2.900000

 THERMODYNAMIC PROPERTIES

 P, BAR            1.0000
 T, K             2500.00
 RHO, KG/CU M    1.1591-1
 H, KJ/KG         2067.12
 U, KJ/KG         1204.35
 G, KJ/KG        -25237.9
 S, KJ/(KG)(K)    10.9220

 M, (1/n)          24.093
 MW, MOL WT        23.657
 (dLV/dLP)t      -1.00242
 (dLV/dLT)p        1.0521
 Cp, KJ/(KG)(K)    2.3445
 GAMMAs            1.1912
 SON VEL,M/SEC     1013.8

 MOLE FRACTIONS

 *C              1.6328-7
 *CH             7.5942-8
 CH2             4.7404-7
 CH3             3.8783-6
 CH2OH           6.812-13
 CH3O            1.107-13
 CH4             3.3515-6
 CH3OH           1.052-13
 *CN             7.9605-5
 CNN             3.820-12
 *CO             2.8232-1
 *CO2            3.1909-7
 COOH            4.627-13
 *C2             4.4210-8
 C2H             7.5040-6
 C2H2,acetylene  1.5815-3
 C2H2,vinylidene 1.2332-6
 CH2CO,ketene    4.9719-8
 O(CH)2O         3.739-16
 C2H3,vinyl      9.4118-8
 CH3CN           1.7665-7
 CH3CO,acetyl    5.800-12
 C2H4            1.7327-7
 CH3CHO,ethanal  2.395-13
 C2H5            1.761-11
 C2H6            2.474-12
 CCN             9.803-11
 CNC             2.4709-8
 OCCN            5.4410-9
 C2N2            4.0281-5
 C2O             7.4383-8
 *C3             4.8877-7
 C3H3,1-propynl  2.212-10
 C3H3,2-propynl  3.1487-7
 C3H4,allene     3.7435-9
 C3H4,propyne    8.4617-9
 C3H4,cyclo-     4.525-11
 C3H5,allyl      9.787-12
 C3H6,propylene  9.672-13
 C3H6,cyclo-     5.396-15
 CNCOCN          2.781-13
 C3O2            1.732-10
 *C4             2.995-10
 C4H2,butadiyne  7.0528-6
 C4H4,1,3-cyclo- 3.311-13
 C4H6,butadiene  1.142-13
 C4H6,1butyne    1.689-14
 C4H6,2butyne    9.820-15
 C4H6,cyclo-     3.701-16
 C4N2            1.4891-7
 *C5             1.4452-9
 C5H6,1,3cyclo-  3.099-15
 C6H2            3.3089-8
 C6H5,phenyl     5.518-15
 C6H6            7.242-15
 *H              9.5204-3
 HCN             2.1410-2
 HCO             3.8630-7
 HCCN            2.721-10
 HCCO            7.8488-9
 HNC             2.2775-3
 HNCO            4.2630-8
 HNO             2.601-13
 *H2             1.4553-1
 HCHO,formaldehy 1.7034-8
 HCOOH           1.094-13
 H2O             1.0189-6
 *N              2.0845-7
 NCO             1.7881-9
 *NH             1.0590-7
 NH2             1.1346-7
 NH3             4.2679-7
 *NO             1.6779-9
 *N2             5.1911-1
 NCN             9.977-10
 N2H2            3.082-12
 N2O             7.658-14
 N3              1.517-13
 N3H             9.129-14
 *O              5.912-10
 *OH             1.5211-8
 *O2             1.697-15
 C(gr)           1.8104-2

  * THERMODYNAMIC PROPERTIES FITTED TO 20000.K









               THERMODYNAMIC EQUILIBRIUM PROPERTIES AT ASSIGNED

                           TEMPERATURE AND PRESSURE

 CASE =                

             REACTANT                       MOLES         ENERGY      TEMP
                                                         KJ/KG-MOL      K
 FUEL        C6H6                         1.0000000     83032.119    300.000
 OXIDANT     O2                           7.5000000        54.358    300.000
 OXIDANT     N2                          28.2143000        53.881    300.000

 O/F=    4.39698  %FUEL= 18.528868  R,EQ.RATIO= 3.000000  PHI,EQ.RATIO= 3.000000

 THERMODYNAMIC PROPERTIES

 P, BAR            1.0000
 T, K             2500.00
 RHO, KG/CU M    1.1595-1
 H, KJ/KG         2098.80
 U, KJ/KG         1236.35
 G, KJ/KG        -25223.2
 S, KJ/(KG)(K)    10.9288

 M, (1/n)          24.101
 MW, MOL WT        23.417
 (dLV/dLP)t      -1.00246
 (dLV/dLT)p        1.0530
 Cp, KJ/(KG)(K)    2.3673
 GAMMAs            1.1892
 SON VEL,M/SEC     1012.7

 MOLE FRACTIONS

 *C              1.6157-7
 *CH             7.6274-8
 CH2             4.8326-7
 CH3             4.0131-6
 CH2OH           7.007-13
 CH3O            1.139-13
 CH4             3.5199-6
 CH3OH           1.098-13
 *CN             7.8525-5
 CNN             3.757-12
 *CO             2.7774-1
 *CO2            3.1208-7
 COOH            4.594-13
 *C2             4.3747-8
 C2H             7.5368-6
 C2H2,acetylene  1.6123-3
 C2H2,vinylidene 1.2572-6
 CH2CO,ketene    5.0391-8
 O(CH)2O         3.768-16
 C2H3,vinyl      9.7388-8
 CH3CN           1.8222-7
 CH3CO,acetyl    5.967-12
 C2H4            1.8198-7
 CH3CHO,ethanal  2.500-13
 C2H5            1.878-11
 C2H6            2.676-12
 CCN             9.670-11
 CNC             2.4374-8
 OCCN            5.3360-9
 C2N2            3.9611-5
 C2O             7.3175-8
 *C3             4.8365-7
 C3H3,1-propynl  2.289-10
 C3H3,2-propynl  3.2581-7
 C3H4,allene     3.9317-9
 C3H4,propyne    8.8870-9
 C3H4,cyclo-     4.753-11
 C3H5,allyl      1.043-11
 C3H6,propylene  1.047-12
 C3H6,cyclo-     5.839-15
 CNCOCN          2.719-13
 C3O2            1.694-10
 *C4             2.964-10
 C4H2,butadiyne  7.1899-6
 C4H4,1,3-cyclo- 3.477-13
 C4H6,butadiene  1.236-13
 C4H6,1butyne    1.827-14
 C4H6,2butyne    1.063-14
 C4H6,cyclo-     4.005-16
 C4N2            1.4643-7
 *C5             1.4301-9
 C5H6,1,3cyclo-  3.353-15
 C6H2            3.3733-8
 C6H5,phenyl     5.882-15
 C6H6            7.837-15
 *H              9.5620-3
 HCN             2.1437-2
 HCO             3.8573-7
 HCCN            2.724-10
 HCCO            7.8373-9
 HNC             2.2803-3
 HNCO            4.2435-8
 HNO             2.589-13
 *H2             1.4836-1
 HCHO,formaldehy 1.7264-8
 HCOOH           1.102-13
 H2O             1.0327-6
 *N              2.0562-7
 NCO             1.7536-9
 *NH             1.0603-7
 NH2             1.1530-7
 NH3             4.4024-7
 *NO             1.6456-9
 *N2             5.1047-1
 NCN             9.811-10
 N2H2            3.123-12
 N2O             7.487-14
 N3              1.488-13
 N3H             9.083-14
 *O              5.816-10
 *OH             1.5189-8
 *O2             1.660-15
 C(gr)           2.8390-2

  * THERMODYNAMIC PROPERTIES FITTED TO 20000.K









               THERMODYNAMIC EQUILIBRIUM PROPERTIES AT ASSIGNED

                           TEMPERATURE AND PRESSURE

 CASE =                

             REACTANT                       MOLES         ENERGY      TEMP
                                                         KJ/KG-MOL      K
 FUEL        C6H6                         1.0000000     83032.119    300.000
 OXIDANT     O2                           7.5000000        54.358    300.000
 OXIDANT     N2                          28.2143000        53.881    300.000

 O/F=    4.25515  %FUEL= 19.028969  R,EQ.RATIO= 3.100000  PHI,EQ.RATIO= 3.100000

 THERMODYNAMIC PROPERTIES

 P, BAR            1.0000
 T, K             2500.00
 RHO, KG/CU M    1.1599-1
 H, KJ/KG         2130.04
 U, KJ/KG         1267.90
 G, KJ/KG        -25208.6
 S, KJ/(KG)(K)    10.9355

 M, (1/n)          24.110
 MW, MOL WT        23.185
 (dLV/dLP)t      -1.00250
 (dLV/dLT)p        1.0537
 Cp, KJ/(KG)(K)    2.3897
 GAMMAs            1.1873
 SON VEL,M/SEC     1011.7

 MOLE FRACTIONS

 *C              1.5992-7
 *CH             7.6580-8
 CH2             4.9219-7
 CH3             4.1462-6
 CH2OH           7.198-13
 CH3O            1.170-13
 CH4             3.6891-6
 CH3OH           1.144-13
 *CN             7.7480-5
 CNN             3.695-12
 *CO             2.7330-1
 *CO2            3.0532-7
 COOH            4.559-13
 *C2             4.3298-8
 C2H             7.5670-6
 C2H2,acetylene  1.6421-3
 C2H2,vinylidene 1.2804-6
 CH2CO,ketene    5.1026-8
 O(CH)2O         3.793-16
 C2H3,vinyl      1.0062-7
 CH3CN           1.8768-7
 CH3CO,acetyl    6.129-12
 C2H4            1.9073-7
 CH3CHO,ethanal  2.605-13
 C2H5            1.996-11
 C2H6            2.887-12
 CCN             9.541-11
 CNC             2.4049-8
 OCCN            5.2345-9
 C2N2            3.8962-5
 C2O             7.2006-8
 *C3             4.7869-7
 C3H3,1-propynl  2.365-10
 C3H3,2-propynl  3.3661-7
 C3H4,allene     4.1206-9
 C3H4,propyne    9.3141-9
 C3H4,cyclo-     4.981-11
 C3H5,allyl      1.109-11
 C3H6,propylene  1.129-12
 C3H6,cyclo-     6.297-15
 CNCOCN          2.659-13
 C3O2            1.658-10
 *C4             2.934-10
 C4H2,butadiyne  7.3228-6
 C4H4,1,3-cyclo- 3.644-13
 C4H6,butadiene  1.333-13
 C4H6,1butyne    1.971-14
 C4H6,2butyne    1.146-14
 C4H6,cyclo-     4.319-16
 C4N2            1.4404-7
 *C5             1.4154-9
 C5H6,1,3cyclo-  3.616-15
 C6H2            3.4356-8
 C6H5,phenyl     6.254-15
 C6H6            8.452-15
 *H              9.6003-3
 HCN             2.1456-2
 HCO             3.8504-7
 HCCN            2.727-10
 HCCO            7.8232-9
 HNC             2.2824-3
 HNCO            4.2228-8
 HNO             2.577-13
 *H2             1.5110-1
 HCHO,formaldehy 1.7481-8
 HCOOH           1.109-13
 H2O             1.0457-6
 *N              2.0288-7
 NCO             1.7203-9
 *NH             1.0613-7
 NH2             1.1707-7
 NH3             4.5344-7
 *NO             1.6142-9
 *N2             5.0212-1
 NCN             9.651-10
 N2H2            3.161-12
 N2O             7.322-14
 N3              1.459-13
 N3H             9.035-14
 *O              5.723-10
 *OH             1.5162-8
 *O2             1.624-15
 C(gr)           3.8355-2

  * THERMODYNAMIC PROPERTIES FITTED TO 20000.K









               THERMODYNAMIC EQUILIBRIUM PROPERTIES AT ASSIGNED

                           TEMPERATURE AND PRESSURE

 CASE =                

             REACTANT                       MOLES         ENERGY      TEMP
                                                         KJ/KG-MOL      K
 FUEL        C6H6                         1.0000000     83032.119    300.000
 OXIDANT     O2                           7.5000000        54.358    300.000
 OXIDANT     N2                          28.2143000        53.881    300.000

 O/F=    4.12217  %FUEL= 19.522967  R,EQ.RATIO= 3.200000  PHI,EQ.RATIO= 3.200000

 THERMODYNAMIC PROPERTIES

 P, BAR            1.0000
 T, K             2500.00
 RHO, KG/CU M    1.1603-1
 H, KJ/KG         2160.84
 U, KJ/KG         1299.00
 G, KJ/KG        -25194.0
 S, KJ/(KG)(K)    10.9419

 M, (1/n)          24.119
 MW, MOL WT        22.961
 (dLV/dLP)t      -1.00253
 (dLV/dLT)p        1.0545
 Cp, KJ/(KG)(K)    2.4117
 GAMMAs            1.1854
 SON VEL,M/SEC     1010.8

 MOLE FRACTIONS

 *C              1.5831-7
 *CH             7.6862-8
 CH2             5.0085-7
 CH3             4.2776-6
 CH2OH           7.383-13
 CH3O            1.200-13
 CH4             3.8589-6
 CH3OH           1.190-13
 *CN             7.6466-5
 CNN             3.636-12
 *CO             2.6900-1
 *CO2            2.9878-7
 COOH            4.523-13
 *C2             4.2863-8
 C2H             7.5949-6
 C2H2,acetylene  1.6710-3
 C2H2,vinylidene 1.3030-6
 CH2CO,ketene    5.1625-8
 O(CH)2O         3.816-16
 C2H3,vinyl      1.0381-7
 CH3CN           1.9304-7
 CH3CO,acetyl    6.287-12
 C2H4            1.9951-7
 CH3CHO,ethanal  2.710-13
 C2H5            2.117-11
 C2H6            3.104-12
 CCN             9.416-11
 CNC             2.3734-8
 OCCN            5.1363-9
 C2N2            3.8334-5
 C2O             7.0873-8
 *C3             4.7388-7
 C3H3,1-propynl  2.440-10
 C3H3,2-propynl  3.4729-7
 C3H4,allene     4.3103-9
 C3H4,propyne    9.7427-9
 C3H4,cyclo-     5.210-11
 C3H5,allyl      1.176-11
 C3H6,propylene  1.214-12
 C3H6,cyclo-     6.771-15
 CNCOCN          2.601-13
 C3O2            1.622-10
 *C4             2.904-10
 C4H2,butadiyne  7.4517-6
 C4H4,1,3-cyclo- 3.812-13
 C4H6,butadiene  1.433-13
 C4H6,1butyne    2.119-14
 C4H6,2butyne    1.232-14
 C4H6,cyclo-     4.644-16
 C4N2            1.4171-7
 *C5             1.4012-9
 C5H6,1,3cyclo-  3.888-15
 C6H2            3.4961-8
 C6H5,phenyl     6.632-15
 C6H6            9.087-15
 *H              9.6357-3
 HCN             2.1469-2
 HCO             3.8423-7
 HCCN            2.728-10
 HCCO            7.8069-9
 HNC             2.2838-3
 HNCO            4.2010-8
 HNO             2.563-13
 *H2             1.5376-1
 HCHO,formaldehy 1.7687-8
 HCOOH           1.116-13
 H2O             1.0579-6
 *N              2.0023-7
 NCO             1.6880-9
 *NH             1.0619-7
 NH2             1.1877-7
 NH3             4.6638-7
 *NO             1.5840-9
 *N2             4.9402-1
 NCN             9.495-10
 N2H2            3.197-12
 N2H4            1.037-16
 N2O             7.162-14
 N3              1.431-13
 N3H             8.985-14
 *O              5.633-10
 *OH             1.5130-8
 *O2             1.589-15
 C(gr)           4.8012-2

  * THERMODYNAMIC PROPERTIES FITTED TO 20000.K









               THERMODYNAMIC EQUILIBRIUM PROPERTIES AT ASSIGNED

                           TEMPERATURE AND PRESSURE

 CASE =                

             REACTANT                       MOLES         ENERGY      TEMP
                                                         KJ/KG-MOL      K
 FUEL        C6H6                         1.0000000     83032.119    300.000
 OXIDANT     O2                           7.5000000        54.358    300.000
 OXIDANT     N2                          28.2143000        53.881    300.000

 O/F=    3.99726  %FUEL= 20.010974  R,EQ.RATIO= 3.300000  PHI,EQ.RATIO= 3.300000

 THERMODYNAMIC PROPERTIES

 P, BAR            1.0000
 T, K             2500.00
 RHO, KG/CU M    1.1607-1
 H, KJ/KG         2191.22
 U, KJ/KG         1329.68
 G, KJ/KG        -25179.4
 S, KJ/(KG)(K)    10.9483

 M, (1/n)          24.127
 MW, MOL WT        22.743
 (dLV/dLP)t      -1.00256
 (dLV/dLT)p        1.0552
 Cp, KJ/(KG)(K)    2.4332
 GAMMAs            1.1836
 SON VEL,M/SEC     1009.8

 MOLE FRACTIONS

 *C              1.5675-7
 *CH             7.7123-8
 CH2             5.0926-7
 CH3             4.4075-6
 CH2OH           7.564-13
 CH3O            1.229-13
 CH4             4.0291-6
 CH3OH           1.235-13
 *CN             7.5482-5
 CNN             3.578-12
 *CO             2.6483-1
 *CO2            2.9247-7
 COOH            4.487-13
 *C2             4.2442-8
 C2H             7.6206-6
 C2H2,acetylene  1.6990-3
 C2H2,vinylidene 1.3248-6
 CH2CO,ketene    5.2192-8
 O(CH)2O         3.836-16
 C2H3,vinyl      1.0696-7
 CH3CN           1.9829-7
 CH3CO,acetyl    6.441-12
 C2H4            2.0831-7
 CH3CHO,ethanal  2.813-13
 C2H5            2.240-11
 C2H6            3.328-12
 CCN             9.295-11
 CNC             2.3429-8
 OCCN            5.0413-9
 C2N2            3.7726-5
 C2O             6.9775-8
 *C3             4.6922-7
 C3H3,1-propynl  2.514-10
 C3H3,2-propynl  3.5783-7
 C3H4,allene     4.5004-9
 C3H4,propyne    1.0172-8
 C3H4,cyclo-     5.440-11
 C3H5,allyl      1.245-11
 C3H6,propylene  1.301-12
 C3H6,cyclo-     7.260-15
 CNCOCN          2.545-13
 C3O2            1.588-10
 *C4             2.875-10
 C4H2,butadiyne  7.5767-6
 C4H4,1,3-cyclo- 3.980-13
 C4H6,butadiene  1.537-13
 C4H6,1butyne    2.272-14
 C4H6,2butyne    1.321-14
 C4H6,cyclo-     4.979-16
 C4N2            1.3946-7
 *C5             1.3874-9
 C5H6,1,3cyclo-  4.169-15
 C6H2            3.5548-8
 C6H5,phenyl     7.017-15
 C6H6            9.743-15
 *H              9.6683-3
 HCN             2.1476-2
 HCO             3.8333-7
 HCCN            2.729-10
 HCCO            7.7885-9
 HNC             2.2845-3
 HNCO            4.1783-8
 HNO             2.550-13
 *H2             1.5634-1
 HCHO,formaldehy 1.7881-8
 HCOOH           1.122-13
 H2O             1.0695-6
 *N              1.9765-7
 NCO             1.6568-9
 *NH             1.0623-7
 NH2             1.2039-7
 NH3             4.7907-7
 *NO             1.5547-9
 *N2             4.8618-1
 NCN             9.345-10
 N2H2            3.230-12
 N2H4            1.076-16
 N2O             7.008-14
 N3              1.404-13
 N3H             8.933-14
 *O              5.546-10
 *OH             1.5095-8
 *O2             1.556-15
 C(gr)           5.7376-2

  * THERMODYNAMIC PROPERTIES FITTED TO 20000.K









               THERMODYNAMIC EQUILIBRIUM PROPERTIES AT ASSIGNED

                           TEMPERATURE AND PRESSURE

 CASE =                

             REACTANT                       MOLES         ENERGY      TEMP
                                                         KJ/KG-MOL      K
 FUEL        C6H6                         1.0000000     83032.119    300.000
 OXIDANT     O2                           7.5000000        54.358    300.000
 OXIDANT     N2                          28.2143000        53.881    300.000

 O/F=    3.87969  %FUEL= 20.493099  R,EQ.RATIO= 3.400000  PHI,EQ.RATIO= 3.400000

 THERMODYNAMIC PROPERTIES

 P, BAR            1.0000
 T, K             2500.00
 RHO, KG/CU M    1.1611-1
 H, KJ/KG         2221.18
 U, KJ/KG         1359.95
 G, KJ/KG        -25164.9
 S, KJ/(KG)(K)    10.9544

 M, (1/n)          24.135
 MW, MOL WT        22.531
 (dLV/dLP)t      -1.00260
 (dLV/dLT)p        1.0560
 Cp, KJ/(KG)(K)    2.4543
 GAMMAs            1.1819
 SON VEL,M/SEC     1008.9

 MOLE FRACTIONS

 *C              1.5524-7
 *CH             7.7362-8
 CH2             5.1741-7
 CH3             4.5357-6
 CH2OH           7.740-13
 CH3O            1.258-13
 CH4             4.1996-6
 CH3OH           1.280-13
 *CN             7.4528-5
 CNN             3.522-12
 *CO             2.6079-1
 *CO2            2.8637-7
 COOH            4.450-13
 *C2             4.2033-8
 C2H             7.6443-6
 C2H2,acetylene  1.7262-3
 C2H2,vinylidene 1.3461-6
 CH2CO,ketene    5.2726-8
 O(CH)2O         3.853-16
 C2H3,vinyl      1.1007-7
 CH3CN           2.0344-7
 CH3CO,acetyl    6.591-12
 C2H4            2.1712-7
 CH3CHO,ethanal  2.915-13
 C2H5            2.365-11
 C2H6            3.558-12
 CCN             9.178-11
 CNC             2.3133-8
 OCCN            4.9493-9
 C2N2            3.7136-5
 C2O             6.8710-8
 *C3             4.6470-7
 C3H3,1-propynl  2.587-10
 C3H3,2-propynl  3.6824-7
 C3H4,allene     4.6909-9
 C3H4,propyne    1.0603-8
 C3H4,cyclo-     5.671-11
 C3H5,allyl      1.314-11
 C3H6,propylene  1.391-12
 C3H6,cyclo-     7.763-15
 CNCOCN          2.491-13
 C3O2            1.555-10
 *C4             2.848-10
 C4H2,butadiyne  7.6981-6
 C4H4,1,3-cyclo- 4.149-13
 C4H6,butadiene  1.643-13
 C4H6,1butyne    2.429-14
 C4H6,2butyne    1.413-14
 C4H6,cyclo-     5.325-16
 C4N2            1.3728-7
 *C5             1.3741-9
 C5H6,1,3cyclo-  4.458-15
 C6H2            3.6117-8
 C6H5,phenyl     7.408-15
 C6H6            1.042-14
 *H              9.6984-3
 HCN             2.1477-2
 HCO             3.8234-7
 HCCN            2.729-10
 HCCO            7.7683-9
 HNC             2.2847-3
 HNCO            4.1549-8
 HNO             2.535-13
 *H2             1.5885-1
 HCHO,formaldehy 1.8064-8
 HCOOH           1.127-13
 H2O             1.0805-6
 *N              1.9515-7
 NCO             1.6265-9
 *NH             1.0623-7
 NH2             1.2195-7
 NH3             4.9151-7
 *NO             1.5263-9
 *N2             4.7858-1
 NCN             9.198-10
 N2H2            3.262-12
 N2H4            1.115-16
 N2O             6.860-14
 N3              1.378-13
 N3H             8.880-14
 *O              5.461-10
 *OH             1.5056-8
 *O2             1.523-15
 C(gr)           6.6459-2

  * THERMODYNAMIC PROPERTIES FITTED TO 20000.K









               THERMODYNAMIC EQUILIBRIUM PROPERTIES AT ASSIGNED

                           TEMPERATURE AND PRESSURE

 CASE =                

             REACTANT                       MOLES         ENERGY      TEMP
                                                         KJ/KG-MOL      K
 FUEL        C6H6                         1.0000000     83032.119    300.000
 OXIDANT     O2                           7.5000000        54.358    300.000
 OXIDANT     N2                          28.2143000        53.881    300.000

 O/F=    3.76884  %FUEL= 20.969446  R,EQ.RATIO= 3.500000  PHI,EQ.RATIO= 3.500000

 THERMODYNAMIC PROPERTIES

 P, BAR            1.0000
 T, K             2500.00
 RHO, KG/CU M    1.1615-1
 H, KJ/KG         2250.74
 U, KJ/KG         1389.80
 G, KJ/KG        -25150.4
 S, KJ/(KG)(K)    10.9605

 M, (1/n)          24.144
 MW, MOL WT        22.326
 (dLV/dLP)t      -1.00263
 (dLV/dLT)p        1.0567
 Cp, KJ/(KG)(K)    2.4750
 GAMMAs            1.1803
 SON VEL,M/SEC     1008.0

 MOLE FRACTIONS

 *C              1.5378-7
 *CH             7.7583-8
 CH2             5.2533-7
 CH3             4.6623-6
 CH2OH           7.911-13
 CH3O            1.286-13
 CH4             4.3705-6
 CH3OH           1.325-13
 *CN             7.3602-5
 CNN             3.468-12
 *CO             2.5687-1
 *CO2            2.8047-7
 COOH            4.412-13
 *C2             4.1636-8
 C2H             7.6661-6
 C2H2,acetylene  1.7527-3
 C2H2,vinylidene 1.3667-6
 CH2CO,ketene    5.3231-8
 O(CH)2O         3.868-16
 C2H3,vinyl      1.1314-7
 CH3CN           2.0849-7
 CH3CO,acetyl    6.737-12
 C2H4            2.2596-7
 CH3CHO,ethanal  3.017-13
 C2H5            2.491-11
 C2H6            3.796-12
 CCN             9.064-11
 CNC             2.2845-8
 OCCN            4.8601-9
 C2N2            3.6563-5
 C2O             6.7676-8
 *C3             4.6031-7
 C3H3,1-propynl  2.659-10
 C3H3,2-propynl  3.7852-7
 C3H4,allene     4.8817-9
 C3H4,propyne    1.1034-8
 C3H4,cyclo-     5.901-11
 C3H5,allyl      1.385-11
 C3H6,propylene  1.484-12
 C3H6,cyclo-     8.281-15
 CNCOCN          2.439-13
 C3O2            1.523-10
 *C4             2.821-10
 C4H2,butadiyne  7.8159-6
 C4H4,1,3-cyclo- 4.318-13
 C4H6,butadiene  1.753-13
 C4H6,1butyne    2.591-14
 C4H6,2butyne    1.507-14
 C4H6,cyclo-     5.680-16
 C4N2            1.3517-7
 *C5             1.3611-9
 C5H6,1,3cyclo-  4.755-15
 C6H2            3.6670-8
 C6H5,phenyl     7.806-15
 C6H6            1.111-14
 *H              9.7261-3
 HCN             2.1474-2
 HCO             3.8126-7
 HCCN            2.729-10
 HCCO            7.7465-9
 HNC             2.2843-3
 HNCO            4.1307-8
 HNO             2.520-13
 *H2             1.6128-1
 HCHO,formaldehy 1.8237-8
 HCOOH           1.131-13
 H2O             1.0908-6
 *N              1.9273-7
 NCO             1.5972-9
 *NH             1.0622-7
 NH2             1.2344-7
 NH3             5.0370-7
 *NO             1.4988-9
 *N2             4.7120-1
 NCN             9.057-10
 N2H2            3.292-12
 N2H4            1.154-16
 N2O             6.716-14
 N3              1.352-13
 N3H             8.825-14
 *O              5.379-10
 *OH             1.5013-8
 *O2             1.492-15
 C(gr)           7.5274-2

  * THERMODYNAMIC PROPERTIES FITTED TO 20000.K









               THERMODYNAMIC EQUILIBRIUM PROPERTIES AT ASSIGNED

                           TEMPERATURE AND PRESSURE

 CASE =                

             REACTANT                       MOLES         ENERGY      TEMP
                                                         KJ/KG-MOL      K
 FUEL        C6H6                         1.0000000     83032.119    300.000
 OXIDANT     O2                           7.5000000        54.358    300.000
 OXIDANT     N2                          28.2143000        53.881    300.000

 O/F=    3.66415  %FUEL= 21.440119  R,EQ.RATIO= 3.600000  PHI,EQ.RATIO= 3.600000

 THERMODYNAMIC PROPERTIES

 P, BAR            1.0000
 T, K             2500.00
 RHO, KG/CU M    1.1619-1
 H, KJ/KG         2279.90
 U, KJ/KG         1419.25
 G, KJ/KG        -25136.0
 S, KJ/(KG)(K)    10.9664

 M, (1/n)          24.152
 MW, MOL WT        22.127
 (dLV/dLP)t      -1.00266
 (dLV/dLT)p        1.0574
 Cp, KJ/(KG)(K)    2.4954
 GAMMAs            1.1787
 SON VEL,M/SEC     1007.2

 MOLE FRACTIONS

 *C              1.5235-7
 *CH             7.7787-8
 CH2             5.3303-7
 CH3             4.7873-6
 CH2OH           8.077-13
 CH3O            1.313-13
 CH4             4.5414-6
 CH3OH           1.369-13
 *CN             7.2702-5
 CNN             3.415-12
 *CO             2.5306-1
 *CO2            2.7476-7
 COOH            4.374-13
 *C2             4.1251-8
 C2H             7.6862-6
 C2H2,acetylene  1.7783-3
 C2H2,vinylidene 1.3867-6
 CH2CO,ketene    5.3707-8
 O(CH)2O         3.880-16
 C2H3,vinyl      1.1618-7
 CH3CN           2.1343-7
 CH3CO,acetyl    6.878-12
 C2H4            2.3480-7
 CH3CHO,ethanal  3.117-13
 C2H5            2.620-11
 C2H6            4.039-12
 CCN             8.953-11
 CNC             2.2566-8
 OCCN            4.7737-9
 C2N2            3.6008-5
 C2O             6.6673-8
 *C3             4.5605-7
 C3H3,1-propynl  2.731-10
 C3H3,2-propynl  3.8866-7
 C3H4,allene     5.0727-9
 C3H4,propyne    1.1466-8
 C3H4,cyclo-     6.132-11
 C3H5,allyl      1.456-11
 C3H6,propylene  1.579-12
 C3H6,cyclo-     8.812-15
 CNCOCN          2.388-13
 C3O2            1.492-10
 *C4             2.795-10
 C4H2,butadiyne  7.9304-6
 C4H4,1,3-cyclo- 4.486-13
 C4H6,butadiene  1.865-13
 C4H6,1butyne    2.758-14
 C4H6,2butyne    1.604-14
 C4H6,cyclo-     6.044-16
 C4N2            1.3312-7
 *C5             1.3485-9
 C5H6,1,3cyclo-  5.060-15
 C6H2            3.7207-8
 C6H5,phenyl     8.208-15
 C6H6            1.183-14
 *H              9.7516-3
 HCN             2.1466-2
 HCO             3.8011-7
 HCCN            2.728-10
 HCCO            7.7232-9
 HNC             2.2834-3
 HNCO            4.1059-8
 HNO             2.505-13
 *H2             1.6364-1
 HCHO,formaldehy 1.8400-8
 HCOOH           1.135-13
 H2O             1.1006-6
 *N              1.9037-7
 NCO             1.5688-9
 *NH             1.0618-7
 NH2             1.2487-7
 NH3             5.1566-7
 *NO             1.4722-9
 *N2             4.6405-1
 NCN             8.919-10
 N2H2            3.321-12
 N2H4            1.192-16
 N2O             6.577-14
 N3              1.328-13
 N3H             8.769-14
 *O              5.299-10
 *OH             1.4968-8
 *O2             1.461-15
 C(gr)           8.3833-2

  * THERMODYNAMIC PROPERTIES FITTED TO 20000.K



