
 *******************************************************************************

         NASA-GLENN CHEMICAL EQUILIBRIUM PROGRAM CEA2, MAY 21, 2004
                   BY  BONNIE MCBRIDE AND SANFORD GORDON
      REFS: NASA RP-1311, PART I, 1994 AND NASA RP-1311, PART II, 1996

 *******************************************************************************



 problem    phi,eq.ratio=0.5,0.6,0.7,0.8,0.9,1,1.1,1.2,1.3,1.4,1.5,1.6,1.7,1.8,1.
 9,2,
     tp   t,k=2500,  p,bar=1,
 react
   fuel=C6H6 moles=1  t,k=300
   oxid=O2 moles=7.5  t,k=300
 output  short   trace=1e-16
 end




               THERMODYNAMIC EQUILIBRIUM PROPERTIES AT ASSIGNED

                           TEMPERATURE AND PRESSURE

 CASE =                

             REACTANT                       MOLES         ENERGY      TEMP
                                                         KJ/KG-MOL      K
 FUEL        C6H6                         1.0000000     83032.119    300.000
 OXIDANT     O2                           7.5000000        54.358    300.000

 O/F=    6.14480  %FUEL= 13.996184  R,EQ.RATIO= 0.500000  PHI,EQ.RATIO= 0.500000

 THERMODYNAMIC PROPERTIES

 P, BAR            1.0000
 T, K             2500.00
 RHO, KG/CU M    1.5919-1
 H, KJ/KG        -2260.15
 U, KJ/KG        -2888.34
 G, KJ/KG        -25018.0
 S, KJ/(KG)(K)     9.1031

 M, (1/n)          33.089
 (dLV/dLP)t      -1.00925
 (dLV/dLT)p        1.2440
 Cp, KJ/(KG)(K)    3.1057
 GAMMAs            1.1312
 SON VEL,M/SEC      843.0

 MOLE FRACTIONS

 *C              6.717-16
 *CO             1.8612-2
 *CO2            3.3712-1
 COOH            4.8490-8
 *H              9.6169-4
 HCO             2.5259-9
 HO2             3.3045-5
 *H2             1.4581-3
 HCHO,formaldehy 1.105-11
 HCOOH           1.1367-9
 H2O             1.6360-1
 H2O2            7.7461-7
 *O              9.6490-3
 *OH             2.4625-2
 *O2             4.4394-1
 O3              1.0818-7

  * THERMODYNAMIC PROPERTIES FITTED TO 20000.K









               THERMODYNAMIC EQUILIBRIUM PROPERTIES AT ASSIGNED

                           TEMPERATURE AND PRESSURE

 CASE =                

             REACTANT                       MOLES         ENERGY      TEMP
                                                         KJ/KG-MOL      K
 FUEL        C6H6                         1.0000000     83032.119    300.000
 OXIDANT     O2                           7.5000000        54.358    300.000

 O/F=    5.12067  %FUEL= 16.338079  R,EQ.RATIO= 0.600000  PHI,EQ.RATIO= 0.600000

 THERMODYNAMIC PROPERTIES

 P, BAR            1.0000
 T, K             2500.00
 RHO, KG/CU M    1.6024-1
 H, KJ/KG        -3064.35
 U, KJ/KG        -3688.39
 G, KJ/KG        -25888.7
 S, KJ/(KG)(K)     9.1298

 M, (1/n)          33.309
 (dLV/dLP)t      -1.01058
 (dLV/dLT)p        1.2793
 Cp, KJ/(KG)(K)    3.3722
 GAMMAs            1.1243
 SON VEL,M/SEC      837.6

 MOLE FRACTIONS

 *C              9.913-16
 *CO             2.4431-2
 *CO2            3.9359-1
 COOH            6.5344-8
 *H              1.1100-3
 HCO             3.8271-9
 HO2             3.0172-5
 *H2             1.9426-3
 HCHO,formaldehy 1.932-11
 HCOOH           1.7681-9
 H2O             1.9386-1
 H2O2            8.1636-7
 *O              8.5820-3
 *OH             2.5280-2
 *O2             3.5118-1
 O3              7.6110-8

  * THERMODYNAMIC PROPERTIES FITTED TO 20000.K









               THERMODYNAMIC EQUILIBRIUM PROPERTIES AT ASSIGNED

                           TEMPERATURE AND PRESSURE

 CASE =                

             REACTANT                       MOLES         ENERGY      TEMP
                                                         KJ/KG-MOL      K
 FUEL        C6H6                         1.0000000     83032.119    300.000
 OXIDANT     O2                           7.5000000        54.358    300.000

 O/F=    4.38915  %FUEL= 18.555815  R,EQ.RATIO= 0.700000  PHI,EQ.RATIO= 0.700000

 THERMODYNAMIC PROPERTIES

 P, BAR            1.0000
 T, K             2500.00
 RHO, KG/CU M    1.6112-1
 H, KJ/KG        -3812.43
 U, KJ/KG        -4433.08
 G, KJ/KG        -26690.4
 S, KJ/(KG)(K)     9.1512

 M, (1/n)          33.491
 (dLV/dLP)t      -1.01220
 (dLV/dLT)p        1.3223
 Cp, KJ/(KG)(K)    3.6848
 GAMMAs            1.1181
 SON VEL,M/SEC      833.0

 MOLE FRACTIONS

 *C              1.497-15
 CH2OH           1.769-16
 *CO             3.1934-2
 *CO2            4.4543-1
 COOH            8.5208-8
 *H              1.2790-3
 HCO             5.7638-9
 HO2             2.6062-5
 *H2             2.5791-3
 HCHO,formaldehy 3.353-11
 HCOOH           2.6565-9
 H2O             2.2284-1
 H2O2            8.1251-7
 *O              7.4305-3
 *OH             2.5220-2
 *O2             2.6326-1
 O3              4.9401-8

  * THERMODYNAMIC PROPERTIES FITTED TO 20000.K









               THERMODYNAMIC EQUILIBRIUM PROPERTIES AT ASSIGNED

                           TEMPERATURE AND PRESSURE

 CASE =                

             REACTANT                       MOLES         ENERGY      TEMP
                                                         KJ/KG-MOL      K
 FUEL        C6H6                         1.0000000     83032.119    300.000
 OXIDANT     O2                           7.5000000        54.358    300.000

 O/F=    3.84050  %FUEL= 20.659010  R,EQ.RATIO= 0.800000  PHI,EQ.RATIO= 0.800000

 THERMODYNAMIC PROPERTIES

 P, BAR            1.0000
 T, K             2500.00
 RHO, KG/CU M    1.6170-1
 H, KJ/KG        -4496.14
 U, KJ/KG        -5114.56
 G, KJ/KG        -27426.7
 S, KJ/(KG)(K)     9.1722

 M, (1/n)          33.612
 (dLV/dLP)t      -1.01432
 (dLV/dLT)p        1.3779
 Cp, KJ/(KG)(K)    4.0765
 GAMMAs            1.1122
 SON VEL,M/SEC      829.3

 MOLE FRACTIONS

 *C              2.401-15
 *CH             1.715-16
 CH2             1.644-16
 CH3             2.065-16
 CH2OH           3.709-16
 *CO             4.2463-2
 *CO2            4.9091-1
 COOH            1.0932-7
 C2O             1.615-16
 *H              1.4888-3
 HCO             8.9218-9
 HO2             2.0841-5
 *H2             3.4948-3
 HCHO,formaldehy 6.041-11
 HCOOH           3.9674-9
 H2O             2.5027-1
 H2O2            7.5634-7
 *O              6.1586-3
 *OH             2.4333-2
 *O2             1.8085-1
 O3              2.8128-8

  * THERMODYNAMIC PROPERTIES FITTED TO 20000.K









               THERMODYNAMIC EQUILIBRIUM PROPERTIES AT ASSIGNED

                           TEMPERATURE AND PRESSURE

 CASE =                

             REACTANT                       MOLES         ENERGY      TEMP
                                                         KJ/KG-MOL      K
 FUEL        C6H6                         1.0000000     83032.119    300.000
 OXIDANT     O2                           7.5000000        54.358    300.000

 O/F=    3.41378  %FUEL= 22.656315  R,EQ.RATIO= 0.900000  PHI,EQ.RATIO= 0.900000

 THERMODYNAMIC PROPERTIES

 P, BAR            1.0000
 T, K             2500.00
 RHO, KG/CU M    1.6168-1
 H, KJ/KG        -5088.39
 U, KJ/KG        -5706.90
 G, KJ/KG        -28097.9
 S, KJ/(KG)(K)     9.2038

 M, (1/n)          33.607
 (dLV/dLP)t      -1.01710
 (dLV/dLT)p        1.4508
 Cp, KJ/(KG)(K)    4.5842
 GAMMAs            1.1068
 SON VEL,M/SEC      827.4

 MOLE FRACTIONS

 *C              4.388-15
 *CH             3.757-16
 CH2             4.317-16
 CH3             6.503-16
 CH2OH           8.942-16
 CH3O            1.453-16
 CH4             1.035-16
 *CO             5.9388-2
 *CO2            5.2547-1
 COOH            1.4029-7
 C2O             4.128-16
 *H              1.7851-3
 HCO             1.4961-8
 HO2             1.4636-5
 *H2             5.0237-3
 HCHO,formaldehy 1.215-10
 HCOOH           6.1045-9
 H2O             2.7534-1
 H2O2            6.3684-7
 *O              4.7134-3
 *OH             2.2328-2
 *O2             1.0593-1
 O3              1.2609-8

  * THERMODYNAMIC PROPERTIES FITTED TO 20000.K









               THERMODYNAMIC EQUILIBRIUM PROPERTIES AT ASSIGNED

                           TEMPERATURE AND PRESSURE

 CASE =                

             REACTANT                       MOLES         ENERGY      TEMP
                                                         KJ/KG-MOL      K
 FUEL        C6H6                         1.0000000     83032.119    300.000
 OXIDANT     O2                           7.5000000        54.358    300.000

 O/F=    3.07240  %FUEL= 24.555531  R,EQ.RATIO= 1.000000  PHI,EQ.RATIO= 1.000000

 THERMODYNAMIC PROPERTIES

 P, BAR            1.0000
 T, K             2500.00
 RHO, KG/CU M    1.6010-1
 H, KJ/KG        -5494.77
 U, KJ/KG        -6119.39
 G, KJ/KG        -28699.6
 S, KJ/(KG)(K)     9.2819

 M, (1/n)          33.278
 (dLV/dLP)t      -1.01927
 (dLV/dLT)p        1.5076
 Cp, KJ/(KG)(K)    5.0138
 GAMMAs            1.1037
 SON VEL,M/SEC      830.3

 MOLE FRACTIONS

 *C              1.053-14
 *CH             1.157-15
 CH2             1.706-15
 CH3             3.296-15
 CH2OH           2.951-15
 CH3O            4.797-16
 CH4             6.728-16
 CH3OH           1.076-16
 *CO             9.2831-2
 *CO2            5.3486-1
 COOH            1.8320-7
 C2O             1.549-15
 *H              2.2901-3
 HCO             3.0001-8
 HO2             7.9621-6
 *H2             8.2685-3
 HCHO,formaldehy 3.125-10
 HCOOH           1.0227-8
 H2O             2.9510-1
 H2O2            4.4445-7
 *O              3.0693-3
 *OH             1.8653-2
 *O2             4.4918-2
 O3              3.4816-9

  * THERMODYNAMIC PROPERTIES FITTED TO 20000.K









               THERMODYNAMIC EQUILIBRIUM PROPERTIES AT ASSIGNED

                           TEMPERATURE AND PRESSURE

 CASE =                

             REACTANT                       MOLES         ENERGY      TEMP
                                                         KJ/KG-MOL      K
 FUEL        C6H6                         1.0000000     83032.119    300.000
 OXIDANT     O2                           7.5000000        54.358    300.000

 O/F=    2.79309  %FUEL= 26.363709  R,EQ.RATIO= 1.100000  PHI,EQ.RATIO= 1.100000

 THERMODYNAMIC PROPERTIES

 P, BAR            1.0000
 T, K             2500.00
 RHO, KG/CU M    1.5487-1
 H, KJ/KG        -5482.44
 U, KJ/KG        -6128.16
 G, KJ/KG        -29220.4
 S, KJ/(KG)(K)     9.4952

 M, (1/n)          32.191
 (dLV/dLP)t      -1.01381
 (dLV/dLT)p        1.3632
 Cp, KJ/(KG)(K)    4.1659
 GAMMAs            1.1129
 SON VEL,M/SEC      847.7

 MOLE FRACTIONS

 *C              3.555-14
 *CH             5.471-15
 CH2             1.130-14
 CH3             3.058-14
 CH2OH           1.425-14
 CH3O            2.316-15
 CH4             8.744-15
 CH3OH           7.278-16
 *CO             1.6305-1
 *CO2            4.8884-1
 COOH            2.3455-7
 CH2CO,ketene    6.720-16
 HO(CO)2OH       1.007-16
 C2O             9.184-15
 *H              3.2080-3
 HCO             7.3817-8
 HCCO            3.206-16
 HO2             3.0199-6
 *H2             1.6225-2
 HCHO,formaldehy 1.0769-9
 HCOOH           1.8341-8
 H2O             3.0132-1
 H2O2            2.3614-7
 *O              1.5971-3
 *OH             1.3596-2
 *O2             1.2162-2
 O3              4.905-10

  * THERMODYNAMIC PROPERTIES FITTED TO 20000.K









               THERMODYNAMIC EQUILIBRIUM PROPERTIES AT ASSIGNED

                           TEMPERATURE AND PRESSURE

 CASE =                

             REACTANT                       MOLES         ENERGY      TEMP
                                                         KJ/KG-MOL      K
 FUEL        C6H6                         1.0000000     83032.119    300.000
 OXIDANT     O2                           7.5000000        54.358    300.000

 O/F=    2.56034  %FUEL= 28.087242  R,EQ.RATIO= 1.200000  PHI,EQ.RATIO= 1.200000

 THERMODYNAMIC PROPERTIES

 P, BAR            1.0000
 T, K             2500.00
 RHO, KG/CU M    1.4698-1
 H, KJ/KG        -5091.66
 U, KJ/KG        -5772.02
 G, KJ/KG        -29659.8
 S, KJ/(KG)(K)     9.8272

 M, (1/n)          30.552
 (dLV/dLP)t      -1.00735
 (dLV/dLT)p        1.1915
 Cp, KJ/(KG)(K)    3.0763
 GAMMAs            1.1341
 SON VEL,M/SEC      878.4

 MOLE FRACTIONS

 *C              1.053-13
 *CH             2.198-14
 CH2             6.155-14
 CH3             2.260-13
 CH2OH           5.560-14
 CH3O            9.038-15
 CH4             8.761-14
 CH3OH           3.852-15
 *CO             2.5513-1
 *CO2            4.0401-1
 COOH            2.6288-7
 C2H2,acetylene  1.301-16
 CH2CO,ketene    5.729-15
 HO(CO)2OH       1.265-16
 C2O             4.257-14
 *H              4.3504-3
 HCO             1.5663-7
 HCCO            2.016-15
 HO2             1.1425-6
 *H2             2.9838-2
 HCHO,formaldehy 3.0989-9
 HCOOH           2.7877-8
 H2O             2.9269-1
 H2O2            1.2116-7
 *O              8.4357-4
 *OH             9.7390-3
 *O2             3.3931-3
 O3              7.228-11

  * THERMODYNAMIC PROPERTIES FITTED TO 20000.K









               THERMODYNAMIC EQUILIBRIUM PROPERTIES AT ASSIGNED

                           TEMPERATURE AND PRESSURE

 CASE =                

             REACTANT                       MOLES         ENERGY      TEMP
                                                         KJ/KG-MOL      K
 FUEL        C6H6                         1.0000000     83032.119    300.000
 OXIDANT     O2                           7.5000000        54.358    300.000

 O/F=    2.36339  %FUEL= 29.731939  R,EQ.RATIO= 1.300000  PHI,EQ.RATIO= 1.300000

 THERMODYNAMIC PROPERTIES

 P, BAR            1.0000
 T, K             2500.00
 RHO, KG/CU M    1.3929-1
 H, KJ/KG        -4603.76
 U, KJ/KG        -5321.68
 G, KJ/KG        -30035.5
 S, KJ/(KG)(K)    10.1727

 M, (1/n)          28.953
 (dLV/dLP)t      -1.00486
 (dLV/dLT)p        1.1242
 Cp, KJ/(KG)(K)    2.6477
 GAMMAs            1.1523
 SON VEL,M/SEC      909.6

 MOLE FRACTIONS

 *C              2.320-13
 *CH             6.072-14
 CH2             2.133-13
 CH3             9.821-13
 CH2OH           1.455-13
 CH3O            2.366-14
 CH4             4.776-13
 CH3OH           1.264-14
 *CO             3.3846-1
 *CO2            3.2277-1
 COOH            2.6341-7
 C2H2,acetylene  9.929-16
 CH2CO,ketene    2.634-14
 O(CH)2O         1.671-16
 HO(CO)2OH       1.270-16
 C2O             1.244-13
 C3O2            3.411-16
 *H              5.4564-3
 HCO             2.6062-7
 HCCO            7.388-15
 HO2             5.1970-7
 *H2             4.6938-2
 HCHO,formaldehy 6.4671-9
 HCOOH           3.5035-8
 H2O             2.7727-1
 H2O2            6.9119-8
 *O              5.0801-4
 *OH             7.3560-3
 *O2             1.2306-3
 O3              1.579-11

  * THERMODYNAMIC PROPERTIES FITTED TO 20000.K









               THERMODYNAMIC EQUILIBRIUM PROPERTIES AT ASSIGNED

                           TEMPERATURE AND PRESSURE

 CASE =                

             REACTANT                       MOLES         ENERGY      TEMP
                                                         KJ/KG-MOL      K
 FUEL        C6H6                         1.0000000     83032.119    300.000
 OXIDANT     O2                           7.5000000        54.358    300.000

 O/F=    2.19457  %FUEL= 31.303087  R,EQ.RATIO= 1.400000  PHI,EQ.RATIO= 1.400000

 THERMODYNAMIC PROPERTIES

 P, BAR            1.0000
 T, K             2500.00
 RHO, KG/CU M    1.3245-1
 H, KJ/KG        -4110.78
 U, KJ/KG        -4865.76
 G, KJ/KG        -30362.7
 S, KJ/(KG)(K)    10.5008

 M, (1/n)          27.532
 (dLV/dLP)t      -1.00390
 (dLV/dLT)p        1.0970
 Cp, KJ/(KG)(K)    2.4840
 GAMMAs            1.1661
 SON VEL,M/SEC      938.3

 MOLE FRACTIONS

 *C              4.255-13
 *CH             1.327-13
 CH2             5.554-13
 CH3             3.047-12
 CH2OH           2.962-13
 CH3O            4.815-14
 CH4             1.766-12
 CH3OH           3.067-14
 *CO             4.0724-1
 *CO2            2.5477-1
 COOH            2.4773-7
 C2H2,acetylene  4.742-15
 CH2CO,ketene    8.251-14
 O(CH)2O         3.435-16
 HO(CO)2OH       1.124-16
 C2O             2.746-13
 C3O2            9.057-16
 *H              6.5014-3
 HCO             3.7364-7
 HCCO            1.943-14
 HO2             2.6648-7
 *H2             6.6639-2
 HCHO,formaldehy 1.1047-8
 HCOOH           3.9260-8
 H2O             2.5824-1
 H2O2            4.2230-8
 *O              3.3326-4
 *OH             5.7498-3
 *O2             5.2957-4
 O3              4.457-12

  * THERMODYNAMIC PROPERTIES FITTED TO 20000.K









               THERMODYNAMIC EQUILIBRIUM PROPERTIES AT ASSIGNED

                           TEMPERATURE AND PRESSURE

 CASE =                

             REACTANT                       MOLES         ENERGY      TEMP
                                                         KJ/KG-MOL      K
 FUEL        C6H6                         1.0000000     83032.119    300.000
 OXIDANT     O2                           7.5000000        54.358    300.000

 O/F=    2.04827  %FUEL= 32.805512  R,EQ.RATIO= 1.500000  PHI,EQ.RATIO= 1.500000

 THERMODYNAMIC PROPERTIES

 P, BAR            1.0000
 T, K             2500.00
 RHO, KG/CU M    1.2645-1
 H, KJ/KG        -3632.54
 U, KJ/KG        -4423.38
 G, KJ/KG        -30650.9
 S, KJ/(KG)(K)    10.8073

 M, (1/n)          26.284
 (dLV/dLP)t      -1.00348
 (dLV/dLT)p        1.0845
 Cp, KJ/(KG)(K)    2.4201
 GAMMAs            1.1768
 SON VEL,M/SEC      964.7

 MOLE FRACTIONS

 *C              7.010-13
 *CH             2.520-13
 CH2             1.215-12
 CH3             7.685-12
 CH2OH           5.153-13
 CH3O            8.376-14
 CH4             5.132-12
 CH3OH           6.148-14
 *CO             4.6268-1
 *CO2            1.9964-1
 COOH            2.2374-7
 C2H             1.049-16
 C2H2,acetylene  1.709-14
 CH2CO,ketene    2.051-13
 O(CH)2O         5.890-16
 C2O             5.138-13
 C3O2            1.926-15
 *H              7.4933-3
 HCO             4.8927-7
 HCCO            4.190-14
 HO2             1.4611-7
 *H2             8.8525-2
 HCHO,formaldehy 1.6673-8
 HCOOH           4.0868-8
 H2O             2.3661-1
 H2O2            2.6687-8
 *O              2.2985-4
 *OH             4.5707-3
 *O2             2.5192-4
 O3              1.462-12

  * THERMODYNAMIC PROPERTIES FITTED TO 20000.K









               THERMODYNAMIC EQUILIBRIUM PROPERTIES AT ASSIGNED

                           TEMPERATURE AND PRESSURE

 CASE =                

             REACTANT                       MOLES         ENERGY      TEMP
                                                         KJ/KG-MOL      K
 FUEL        C6H6                         1.0000000     83032.119    300.000
 OXIDANT     O2                           7.5000000        54.358    300.000

 O/F=    1.92025  %FUEL= 34.243626  R,EQ.RATIO= 1.600000  PHI,EQ.RATIO= 1.600000

 THERMODYNAMIC PROPERTIES

 P, BAR            1.0000
 T, K             2500.00
 RHO, KG/CU M    1.2116-1
 H, KJ/KG        -3173.79
 U, KJ/KG        -3999.15
 G, KJ/KG        -30906.5
 S, KJ/(KG)(K)    11.0931

 M, (1/n)          25.185
 (dLV/dLP)t      -1.00330
 (dLV/dLT)p        1.0784
 Cp, KJ/(KG)(K)    2.4007
 GAMMAs            1.1857
 SON VEL,M/SEC      989.3

 MOLE FRACTIONS

 *C              1.080-12
 *CH             4.370-13
 CH2             2.373-12
 CH3             1.688-11
 CH2OH           8.048-13
 CH3O            1.308-13
 CH4             1.269-11
 CH3OH           1.081-13
 *CO             5.0694-1
 *CO2            1.5550-1
 COOH            1.9614-7
 C2H             2.805-16
 C2H2,acetylene  5.143-14
 CH2CO,ketene    4.388-13
 O(CH)2O         8.956-16
 C2O             8.677-13
 C3O2            3.563-15
 *H              8.4333-3
 HCO             6.0332-7
 HCCO            7.964-14
 HO2             8.3103-8
 *H2             1.1213-1
 HCHO,formaldehy 2.3139-8
 HCOOH           4.0320-8
 H2O             2.1305-1
 H2O2            1.7083-8
 *O              1.6340-4
 *OH             3.6569-3
 *O2             1.2731-4
 O3              5.254-13

  * THERMODYNAMIC PROPERTIES FITTED TO 20000.K









               THERMODYNAMIC EQUILIBRIUM PROPERTIES AT ASSIGNED

                           TEMPERATURE AND PRESSURE

 CASE =                

             REACTANT                       MOLES         ENERGY      TEMP
                                                         KJ/KG-MOL      K
 FUEL        C6H6                         1.0000000     83032.119    300.000
 OXIDANT     O2                           7.5000000        54.358    300.000

 O/F=    1.80730  %FUEL= 35.621473  R,EQ.RATIO= 1.700000  PHI,EQ.RATIO= 1.700000

 THERMODYNAMIC PROPERTIES

 P, BAR            1.0000
 T, K             2500.00
 RHO, KG/CU M    1.1648-1
 H, KJ/KG        -2735.26
 U, KJ/KG        -3593.80
 G, KJ/KG        -31134.1
 S, KJ/(KG)(K)    11.3595

 M, (1/n)          24.211
 (dLV/dLP)t      -1.00323
 (dLV/dLT)p        1.0754
 Cp, KJ/(KG)(K)    2.4041
 GAMMAs            1.1933
 SON VEL,M/SEC     1012.2

 MOLE FRACTIONS

 *C              1.596-12
 *CH             7.135-13
 CH2             4.280-12
 CH3             3.365-11
 CH2OH           1.161-12
 CH3O            1.887-13
 CH4             2.795-11
 CH3OH           1.722-13
 *CO             5.4212-1
 *CO2            1.2034-1
 COOH            1.6772-7
 C2H             6.768-16
 C2H2,acetylene  1.371-13
 C2H2,vinylidene 1.069-16
 CH2CO,ketene    8.464-13
 O(CH)2O         1.250-15
 C2O             1.371-12
 C3O2            6.021-15
 *H              9.3179-3
 HCO             7.1286-7
 HCCO            1.390-13
 HO2             4.8091-8
 *H2             1.3688-1
 HCHO,formaldehy 3.0208-8
 HCOOH           3.8094-8
 H2O             1.8823-1
 H2O2            1.0922-8
 *O              1.1826-4
 *OH             2.9242-3
 *O2             6.6680-5
 O3              1.991-13

  * THERMODYNAMIC PROPERTIES FITTED TO 20000.K









               THERMODYNAMIC EQUILIBRIUM PROPERTIES AT ASSIGNED

                           TEMPERATURE AND PRESSURE

 CASE =                

             REACTANT                       MOLES         ENERGY      TEMP
                                                         KJ/KG-MOL      K
 FUEL        C6H6                         1.0000000     83032.119    300.000
 OXIDANT     O2                           7.5000000        54.358    300.000

 O/F=    1.70689  %FUEL= 36.942762  R,EQ.RATIO= 1.800000  PHI,EQ.RATIO= 1.800000

 THERMODYNAMIC PROPERTIES

 P, BAR            1.0000
 T, K             2500.00
 RHO, KG/CU M    1.1231-1
 H, KJ/KG        -2316.34
 U, KJ/KG        -3206.77
 G, KJ/KG        -31336.9
 S, KJ/(KG)(K)    11.6082

 M, (1/n)          23.344
 (dLV/dLP)t      -1.00322
 (dLV/dLT)p        1.0741
 Cp, KJ/(KG)(K)    2.4202
 GAMMAs            1.1999
 SON VEL,M/SEC     1033.6

 MOLE FRACTIONS

 *C              2.300-12
 *CH             1.119-12
 CH2             7.308-12
 CH3             6.255-11
 CH2OH           1.575-12
 CH3O            2.560-13
 CH4             5.655-11
 CH3OH           2.543-13
 *CO             5.7007-1
 *CO2            9.2355-2
 COOH            1.4011-7
 C2H             1.530-15
 C2H2,acetylene  3.373-13
 C2H2,vinylidene 2.630-16
 CH2CO,ketene    1.520-12
 O(CH)2O         1.638-15
 CH3CO,acetyl    1.855-16
 C2O             2.078-12
 C3O2            9.594-15
 *H              1.0143-2
 HCO             8.1602-7
 HCCO            2.293-13
 HO2             2.7881-8
 *H2             1.6221-1
 HCHO,formaldehy 3.7642-8
 HCOOH           3.4642-8
 H2O             1.6278-1
 H2O2            6.8933-9
 *O              8.6301-5
 *OH             2.3230-3
 *O2             3.5513-5
 O3              7.740-14

  * THERMODYNAMIC PROPERTIES FITTED TO 20000.K









               THERMODYNAMIC EQUILIBRIUM PROPERTIES AT ASSIGNED

                           TEMPERATURE AND PRESSURE

 CASE =                

             REACTANT                       MOLES         ENERGY      TEMP
                                                         KJ/KG-MOL      K
 FUEL        C6H6                         1.0000000     83032.119    300.000
 OXIDANT     O2                           7.5000000        54.358    300.000

 O/F=    1.61705  %FUEL= 38.210906  R,EQ.RATIO= 1.900000  PHI,EQ.RATIO= 1.900000

 THERMODYNAMIC PROPERTIES

 P, BAR            1.0000
 T, K             2500.00
 RHO, KG/CU M    1.0857-1
 H, KJ/KG        -1915.95
 U, KJ/KG        -2837.03
 G, KJ/KG        -31517.6
 S, KJ/(KG)(K)    11.8407

 M, (1/n)          22.567
 (dLV/dLP)t      -1.00324
 (dLV/dLT)p        1.0739
 Cp, KJ/(KG)(K)    2.4437
 GAMMAs            1.2057
 SON VEL,M/SEC     1053.8

 MOLE FRACTIONS

 *C              3.278-12
 *CH             1.715-12
 CH2             1.204-11
 CH3             1.108-10
 CH2OH           2.035-12
 CH3O            3.307-13
 CH4             1.077-10
 CH3OH           3.534-13
 *CO             5.9238-1
 *CO2            6.9986-2
 COOH            1.1417-7
 C2H             3.340-15
 C2H2,acetylene  7.918-13
 C2H2,vinylidene 6.174-16
 CH2CO,ketene    2.602-12
 O(CH)2O         2.046-15
 CH3CO,acetyl    3.415-16
 C2H4            1.098-16
 C2O             3.076-12
 C3O2            1.476-14
 *H              1.0907-2
 HCO             9.1181-7
 HCCO            3.652-13
 HO2             1.5944-8
 *H2             1.8756-1
 HCHO,formaldehy 4.5229-8
 HCOOH           3.0355-8
 H2O             1.3726-1
 H2O2            4.2390-9
 *O              6.2936-5
 *OH             1.8217-3
 *O2             1.8887-5
 O3              3.002-14

  * THERMODYNAMIC PROPERTIES FITTED TO 20000.K









               THERMODYNAMIC EQUILIBRIUM PROPERTIES AT ASSIGNED

                           TEMPERATURE AND PRESSURE

 CASE =                

             REACTANT                       MOLES         ENERGY      TEMP
                                                         KJ/KG-MOL      K
 FUEL        C6H6                         1.0000000     83032.119    300.000
 OXIDANT     O2                           7.5000000        54.358    300.000

 O/F=    1.53620  %FUEL= 39.429049  R,EQ.RATIO= 2.000000  PHI,EQ.RATIO= 2.000000

 THERMODYNAMIC PROPERTIES

 P, BAR            1.0000
 T, K             2500.00
 RHO, KG/CU M    1.0520-1
 H, KJ/KG        -1532.90
 U, KJ/KG        -2483.45
 G, KJ/KG        -31677.9
 S, KJ/(KG)(K)    12.0580

 M, (1/n)          21.868
 (dLV/dLP)t      -1.00329
 (dLV/dLT)p        1.0741
 Cp, KJ/(KG)(K)    2.4716
 GAMMAs            1.2110
 SON VEL,M/SEC     1072.9

 MOLE FRACTIONS

 *C              4.684-12
 *CH             2.609-12
 CH2             1.950-11
 CH3             1.910-10
 CH2OH           2.528-12
 CH3O            4.109-13
 CH4             1.976-10
 CH3OH           4.674-13
 *CO             6.1031-1
 *CO2            5.1984-2
 COOH            9.0269-8
 C2H             7.260-15
 C2H2,acetylene  1.832-12
 C2H2,vinylidene 1.429-15
 CH2CO,ketene    4.341-12
 O(CH)2O         2.460-15
 C2H3,vinyl      1.306-16
 CH3CO,acetyl    6.064-16
 C2H4            2.878-16
 C2O             4.529-12
 C3O2            2.239-14
 *H              1.1610-2
 HCO             9.9995-7
 HCCO            5.723-13
 HO2             8.8217-9
 *H2             2.1252-1
 HCHO,formaldehy 5.2798-8
 HCOOH           2.5547-8
 H2O             1.1213-1
 H2O2            2.4965-9
 *O              4.5374-5
 *OH             1.3980-3
 *O2             9.8168-6
 O3              1.125-14

  * THERMODYNAMIC PROPERTIES FITTED TO 20000.K



